2024_89_CemigReconfigurationCases/1_AlimsCemig/MDH08/MDH08SegmentosMT.dss
new line.TR10128000 bus1=BMT101708049.1.2.3,bus2=BMT2800127.1.2.3,Phases=3,Linecode=CAB108_3_3,Length=0.038481000,Units=km
new line.TR10458330 bus1=BMT101708791.1.2.3,bus2=BMT154414093.1.2.3,Phases=3,Linecode=CABA06_3_3,Length=0.026933000,Units=km
new line.TR10791866 bus1=BMT6742836B.1.2.3,bus2=BMT113390412.1.2.3,Phases=3,Linecode=CABA08_3_3,Length=0.029975000,Units=km
new line.TR10791887 bus1=BMT150342650.1.2.3,bus2=BMT150342651.1.2.3,Phases=3,Linecode=CAB611_3_3,Length=0.028608000,Units=km
new line.TR10791901 bus1=BMT150342651.1.2.3,bus2=BMT101709820.1.2.3,Phases=3,Linecode=CAB611_3_3,Length=0.004474000,Units=km
new line.TR10791943 bus1=BMT101709827.1.2.3,bus2=BMT2429029B.1.2.3,Phases=3,Linecode=CABA08_3_3,Length=0.039709000,Units=km
new line.TR10792174 bus1=BMT2429001B.1.2.3,bus2=BMT7050367B.1.2.3,Phases=3,Linecode=CABA08_3_3,Length=0.021938000,Units=km
new line.TR10792181 bus1=BMT2429008B.1.2.3,bus2=BMT7050367B.1.2.3,Phases=3,Linecode=CABA08_3_3,Length=0.022832000,Units=km
new line.TR10792286 bus1=BMT2428896B.1.2.3,bus2=BMT7050542B.1.2.3,Phases=3,Linecode=CABA08_3_3,Length=0.028468000,Units=km
new line.TR10792293 bus1=BMT3271717B.1.2.3,bus2=BMT7050542B.1.2.3,Phases=3,Linecode=CABA08_3_3,Length=0.032582000,Units=km
new line.TR10792440 bus1=BMT6836706B.1.2.3,bus2=BMT101709869.1.2.3,Phases=3,Linecode=CABA08_3_3,Length=0.058837000,Units=km
new line.TR10792482 bus1=BMT101709869.1.2.3,bus2=BMT4136630B.1.2.3,Phases=3,Linecode=CABA08_3_3,Length=0.040260000,Units=km
new line.TR10792489 bus1=BMT4136630B.1.2.3,bus2=BMT101709876.1.2.3,Phases=3,Linecode=CABA08_3_3,Length=0.032658000,Units=km
new line.TR10792496 bus1=BMT150773473.1.2.3,bus2=BMT2428847B.1.2.3,Phases=3,Linecode=CABA08_3_3,Length=0.025949000,Units=km
new line.TR10792531 bus1=BMT2428847B.1.2.3,bus2=BMT4136644B.1.2.3,Phases=3,Linecode=CABA08_3_3,Length=0.027466000,Units=km
new line.TR10792545 bus1=BMT4136644B.1.2.3,bus2=BMT2428840B.1.2.3,Phases=3,Linecode=CABA08_3_3,Length=0.029163000,Units=km
new line.TR10792699 bus1=BMT598186B.1.2.3,bus2=BMT7051109B.1.2.3,Phases=3,Linecode=CABA08_3_3,Length=0.028869000,Units=km
new line.TR10792706 bus1=BMT598179B.1.2.3,bus2=BMT7051109B.1.2.3,Phases=3,Linecode=CABA08_3_3,Length=0.037493000,Units=km
new line.TR1129073 bus1=BMT163792031.1.2.3,bus2=BMT163792206.1.2.3,Phases=3,Linecode=CABA08_3_3,Length=0.040322000,Units=km
new line.TR1129087 bus1=BMT163792206.1.2.3,bus2=BMT163792205.1.2.3,Phases=3,Linecode=CABA08_3_3,Length=0.024604000,Units=km
new line.TR1129094 bus1=BMT163792206.1.2.3,bus2=BMT756148B.1.2.3,Phases=3,Linecode=CABA08_3_3,Length=0.028310000,Units=km
new line.TR1129115 bus1=BMT129634920.1.2.3,bus2=BMT129634927.1.2.3,Phases=3,Linecode=CABA08_3_3,Length=0.020597000,Units=km
new line.TR1129136 bus1=BMT139641854.1.2.3,bus2=BMT139641861.1.2.3,Phases=3,Linecode=CABA08_3_3,Length=0.073559000,Units=km
new line.TR1129157 bus1=BMT101708840.1.2.3,bus2=BMT753635B.1.2.3,Phases=3,Linecode=CAB103_3_3,Length=0.019931000,Units=km
new line.TR1129171 bus1=BMT154414092.1.2.3,bus2=BMT753572B.1.2.3,Phases=3,Linecode=CABA06_3_3,Length=0.044733000,Units=km
new line.TR1129178 bus1=BMT154414092.1.2.3,bus2=BMT3687412B.1.2.3,Phases=3,Linecode=CABA06_3_3,Length=0.018363000,Units=km
new line.TR1129192 bus1=BMT753572B.1.2.3,bus2=BMT3305947B.1.2.3,Phases=3,Linecode=CABA06_3_3,Length=0.044430000,Units=km
new line.TR1129234 bus1=BMT139641861.1.2.3,bus2=BMT139641868.1.2.3,Phases=3,Linecode=CABA08_3_3,Length=0.023860000,Units=km
new line.TR1129241 bus1=BMT139641861.1.2.3,bus2=BMT3850568B.1.2.3,Phases=3,Linecode=CABA08_3_3,Length=0.029538000,Units=km
new line.TR1129255 bus1=BMT139641875.1.2.3,bus2=BMT101708742.1.2.3,Phases=3,Linecode=CABA06_3_3,Length=0.037600000,Units=km
new line.TR1129262 bus1=BMT139641875.1.2.3,bus2=BMT139641882.1.2.3,Phases=3,Linecode=CABA08_3_3,Length=0.043474000,Units=km
new line.TR1129276 bus1=BMT154414091.1.2.3,bus2=BMT101708777.1.2.3,Phases=3,Linecode=CABA06_3_3,Length=0.038089000,Units=km
new line.TR1129283 bus1=BMT165798657.1.2.3,bus2=BMT165798658.1.2.3,Phases=3,Linecode=CABA08_3_3,Length=0.048034000,Units=km
new line.TR1129290 bus1=BMT753635B.1.2.3,bus2=BMT101708847.1.2.3,Phases=3,Linecode=CAB103_3_3,Length=0.015004000,Units=km
new line.TR1129297 bus1=BMT753642B.1.2.3,bus2=BMT101708889.1.2.3,Phases=3,Linecode=CABA08_3_3,Length=0.028852000,Units=km
new line.TR1129304 bus1=BMT154408210.1.2.3,bus2=BMT753656B.1.2.3,Phases=3,Linecode=CABA06_3_3,Length=0.039457000,Units=km
new line.TR1129311 bus1=BMT101708889.1.2.3,bus2=BMT165798659.1.2.3,Phases=3,Linecode=CABA08_3_3,Length=0.050620000,Units=km
new line.TR1129318 bus1=BMT753656B.1.2.3,bus2=BMT154408211.1.2.3,Phases=3,Linecode=CABA06_3_3,Length=0.039457000,Units=km
new line.TR1129332 bus1=BMT154408211.1.2.3,bus2=BMT753670B.1.2.3,Phases=3,Linecode=CABA06_3_3,Length=0.040322000,Units=km
new line.TR1129346 bus1=BMT753670B.1.2.3,bus2=BMT154408212.1.2.3,Phases=3,Linecode=CABA06_3_3,Length=0.038598000,Units=km
new line.TR1129388 bus1=BMT753691B.1.2.3,bus2=BMT165866052.1.2.3,Phases=3,Linecode=CABA08_3_3,Length=0.035857000,Units=km
new line.TR1129402 bus1=BMT165866052.1.2.3,bus2=BMT131477677.1.2.3,Phases=3,Linecode=CABA07_3_3,Length=0.039973000,Units=km
new line.TR1129409 bus1=BMT165866052.1.2.3,bus2=BMT165866054.1.2.3,Phases=3,Linecode=CABA08_3_3,Length=0.034995000,Units=km
new line.TR1129423 bus1=BMT131477698.1.2.3,bus2=BMT753761B.1.2.3,Phases=3,Linecode=CABA07_3_3,Length=0.039457000,Units=km
new line.TR1129444 bus1=BMT165866054.1.2.3,bus2=BMT165866055.1.2.3,Phases=3,Linecode=CABA08_3_3,Length=0.035857000,Units=km
new line.TR1129465 bus1=BMT165866055.1.2.3,bus2=BMT101708672.1.2.3,Phases=3,Linecode=CABA06_3_3,Length=0.022832000,Units=km
new line.TR1129472 bus1=BMT165866055.1.2.3,bus2=BMT165866056.1.2.3,Phases=3,Linecode=CABA08_3_3,Length=0.036369000,Units=km
new line.TR1129493 bus1=BMT129602328.1.2.3,bus2=BMT129602335.1.2.3,Phases=3,Linecode=CAB103_3_3,Length=0.031121000,Units=km
new line.TR1129521 bus1=BMT165866056.1.2.3,bus2=BMT753747B.1.2.3,Phases=3,Linecode=CABA08_3_3,Length=0.035365000,Units=km
new line.TR1129542 bus1=BMT139641847.1.2.3,bus2=BMT139641854.1.2.3,Phases=3,Linecode=CABA08_3_3,Length=0.030895000,Units=km
new line.TR1129556 bus1=BMT753747B.1.2.3,bus2=BMT101708679.1.2.3,Phases=3,Linecode=CABA08_3_3,Length=0.030895000,Units=km
new line.TR1129584 bus1=BMT753761B.1.2.3,bus2=BMT753768B.1.2.3,Phases=3,Linecode=CABA07_3_3,Length=0.040828000,Units=km
new line.TR1129605 bus1=BMT753768B.1.2.3,bus2=BMT131477705.1.2.3,Phases=3,Linecode=CABA07_3_3,Length=0.037600000,Units=km
new line.TR1129654 bus1=BMT167821677.1.2.3,bus2=BMT753824B.1.2.3,Phases=3,Linecode=CABA06_3_3,Length=0.026084000,Units=km
new line.TR1129668 bus1=BMT753824B.1.2.3,bus2=BMT101710464.1.2.3,Phases=3,Linecode=CABA06_3_3,Length=0.017005000,Units=km
new line.TR1129689 bus1=BMT161730795.1.2.3,bus2=BMT161730796.1.2.3,Phases=3,Linecode=CABA06_3_3,Length=0.031393000,Units=km
new line.TR1129696 bus1=BMT161730795.1.2.3,bus2=BMT101710422.1.2.3,Phases=3,Linecode=CABA06_3_3,Length=0.040322000,Units=km
new line.TR1129703 bus1=BMT167821676.1.2.3,bus2=BMT167821677.1.2.3,Phases=3,Linecode=CABA06_3_3,Length=0.036725000,Units=km
new line.TR1129710 bus1=BMT101710478.1.2.3,bus2=BMT101710485.1.2.3,Phases=3,Linecode=CAB902_4_3,Length=0.009437000,Units=km
new line.TR1129731 bus1=BMT161730796.1.2.3,bus2=BMT161730797.1.2.3,Phases=3,Linecode=CABA06_3_3,Length=0.030422000,Units=km
new line.TR1129752 bus1=BMT161730797.1.2.3,bus2=BMT101710436.1.2.3,Phases=3,Linecode=CABA06_3_3,Length=0.036079000,Units=km
new line.TR1129759 bus1=BMT161730797.1.2.3,bus2=BMT101710443.1.2.3,Phases=3,Linecode=CABA06_3_3,Length=0.041194000,Units=km
new line.TR1129801 bus1=BMT158841450.1.2.3,bus2=BMT153025103.1.2.3,Phases=3,Linecode=CABA06_3_3,Length=0.041121000,Units=km
new line.TR1129829 bus1=BMT753922B.1.2.3,bus2=BMT159046932.1.2.3,Phases=3,Linecode=CABA06_3_3,Length=0.039973000,Units=km
new line.TR1129843 bus1=BMT161730791.1.2.3,bus2=BMT161730792.1.2.3,Phases=3,Linecode=CABA08_3_3,Length=0.033625000,Units=km
new line.TR1129857 bus1=BMT161730792.1.2.3,bus2=BMT101710380.1.2.3,Phases=3,Linecode=CABA06_3_3,Length=0.032258000,Units=km
new line.TR1129878 bus1=BMT753943B.1.2.3,bus2=BMT753922B.1.2.3,Phases=3,Linecode=CABA06_3_3,Length=0.046154000,Units=km
new line.TR1129892 bus1=BMT101710380.1.2.3,bus2=BMT753957B.1.2.3,Phases=3,Linecode=CABA06_3_3,Length=0.032766000,Units=km
new line.TR1129899 bus1=BMT101710772.1.2.3,bus2=BMT101710779.1.2.3,Phases=3,Linecode=CAB103_3_3,Length=0.017005000,Units=km
new line.TR1129913 bus1=BMT753957B.1.2.3,bus2=BMT753971B.1.2.3,Phases=3,Linecode=CABA06_3_3,Length=0.032258000,Units=km
new line.TR1129934 bus1=BMT753964B.1.2.3,bus2=BMT753943B.1.2.3,Phases=3,Linecode=CABA06_3_3,Length=0.039973000,Units=km
new line.TR1129941 bus1=BMT753971B.1.2.3,bus2=BMT753978B.1.2.3,Phases=3,Linecode=CABA06_3_3,Length=0.025949000,Units=km
new line.TR1129955 bus1=BMT753978B.1.2.3,bus2=BMT161730793.1.2.3,Phases=3,Linecode=CABA06_3_3,Length=0.039973000,Units=km
new line.TR1129962 bus1=BMT159046931.1.2.3,bus2=BMT753964B.1.2.3,Phases=3,Linecode=CABA06_3_3,Length=0.038959000,Units=km
new line.TR1129983 bus1=BMT161730793.1.2.3,bus2=BMT161730794.1.2.3,Phases=3,Linecode=CABA06_3_3,Length=0.022832000,Units=km
new line.TR1129997 bus1=BMT161730794.1.2.3,bus2=BMT161730795.1.2.3,Phases=3,Linecode=CABA06_3_3,Length=0.023713000,Units=km
new line.TR1130004 bus1=BMT161730794.1.2.3,bus2=BMT148353629.1.2.3,Phases=3,Linecode=CABA06_3_3,Length=0.044789000,Units=km
new line.TR1130109 bus1=BMT171848958.1.2.3,bus2=BMT754090B.1.2.3,Phases=3,Linecode=CABA06_3_3,Length=0.037226000,Units=km
new line.TR1130186 bus1=BMT754090B.1.2.3,bus2=BMT171848959.1.2.3,Phases=3,Linecode=CABA06_3_3,Length=0.035520000,Units=km
new line.TR1130235 bus1=BMT171848960.1.2.3,bus2=BMT171848961.1.2.3,Phases=3,Linecode=CABA06_3_3,Length=0.025561000,Units=km
new line.TR1130249 bus1=BMT171848959.1.2.3,bus2=BMT171848960.1.2.3,Phases=3,Linecode=CABA06_3_3,Length=0.027302000,Units=km
new line.TR1130256 bus1=BMT171848959.1.2.3,bus2=BMT101711087.1.2.3,Phases=3,Linecode=CABA06_3_3,Length=0.011049000,Units=km
new line.TR1130291 bus1=BMT129602335.1.2.3,bus2=BMT129602342.1.2.3,Phases=3,Linecode=CABA06_3_3,Length=0.034141000,Units=km
new line.TR1130298 bus1=BMT129602342.1.2.3,bus2=BMT754146B.1.2.3,Phases=3,Linecode=CABA06_3_3,Length=0.036725000,Units=km
new line.TR1130319 bus1=BMT170295088.1.2.3,bus2=BMT170295089.1.2.3,Phases=3,Linecode=CABA06_3_3,Length=0.038598000,Units=km
new line.TR1130347 bus1=BMT101710331.1.2.3,bus2=BMT101710338.1.2.3,Phases=3,Linecode=CABA06_3_3,Length=0.015816000,Units=km
new line.TR1130354 bus1=BMT160396559.1.2.3,bus2=BMT160396560.1.2.3,Phases=3,Linecode=CABA06_3_3,Length=0.045805000,Units=km
new line.TR1130557 bus1=BMT173173642.1.2.3,bus2=BMT754356B.1.2.3,Phases=3,Linecode=CAB103_3_3,Length=0.040011000,Units=km
new line.TR1130571 bus1=BMT754349B.1.2.3,bus2=BMT173173634.1.2.3,Phases=3,Linecode=CAB103_3_3,Length=0.035010000,Units=km
new line.TR1130585 bus1=BMT754363B.1.2.3,bus2=BMT754349B.1.2.3,Phases=3,Linecode=CAB103_3_3,Length=0.039215000,Units=km
new line.TR1130592 bus1=BMT754363B.1.2.3,bus2=BMT754356B.1.2.3,Phases=3,Linecode=CAB103_3_3,Length=0.035010000,Units=km
new line.TR1130606 bus1=BMT754377B.1.2.3,bus2=BMT754384B.1.2.3,Phases=3,Linecode=CAB103_3_3,Length=0.038611000,Units=km
new line.TR1130620 bus1=BMT754384B.1.2.3,bus2=BMT754398B.1.2.3,Phases=3,Linecode=CAB103_3_3,Length=0.037812000,Units=km
new line.TR1130641 bus1=BMT754398B.1.2.3,bus2=BMT754405B.1.2.3,Phases=3,Linecode=CAB103_3_3,Length=0.041412000,Units=km
new line.TR1130655 bus1=BMT754405B.1.2.3,bus2=BMT754412B.1.2.3,Phases=3,Linecode=CAB103_3_3,Length=0.037212000,Units=km
new line.TR1130669 bus1=BMT754412B.1.2.3,bus2=BMT173173641.1.2.3,Phases=3,Linecode=CAB103_3_3,Length=0.038611000,Units=km
new line.TR1130795 bus1=BMT754489B.1.2.3,bus2=BMT165868207.1.2.3,Phases=3,Linecode=CABA08_3_3,Length=0.034995000,Units=km
new line.TR11308074 bus1=BMT101710317.1.2.3,bus2=BMT3195305B.1.2.3,Phases=3,Linecode=CABA06_3_3,Length=0.036245000,Units=km
new line.TR11308081 bus1=BMT3195305B.1.2.3,bus2=BMT3774100B.1.2.3,Phases=3,Linecode=CABA06_3_3,Length=0.030471000,Units=km
new line.TR11308088 bus1=BMT3774100B.1.2.3,bus2=BMT4027094B.1.2.3,Phases=3,Linecode=CABA06_3_3,Length=0.034491000,Units=km
new line.TR1130809 bus1=BMT754496B.1.2.3,bus2=BMT754489B.1.2.3,Phases=3,Linecode=CABA08_3_3,Length=0.008547000,Units=km
new line.TR1130816 bus1=BMT754496B.1.2.3,bus2=BMT101711493.1.2.3,Phases=3,Linecode=CABA08_3_3,Length=0.018873000,Units=km
new line.TR1130823 bus1=BMT754503B.1.2.3,bus2=BMT159046935.1.2.3,Phases=3,Linecode=CABA06_3_3,Length=0.042556000,Units=km
new line.TR1130844 bus1=BMT754510B.1.2.3,bus2=BMT754503B.1.2.3,Phases=3,Linecode=CABA06_3_3,Length=0.046154000,Units=km
new line.TR1130865 bus1=BMT754517B.1.2.3,bus2=BMT754510B.1.2.3,Phases=3,Linecode=CABA06_3_3,Length=0.042556000,Units=km
new line.TR1130879 bus1=BMT754524B.1.2.3,bus2=BMT754517B.1.2.3,Phases=3,Linecode=CABA06_3_3,Length=0.041194000,Units=km
new line.TR1130921 bus1=BMT101710590.1.2.3,bus2=BMT754524B.1.2.3,Phases=3,Linecode=CABA06_3_3,Length=0.040322000,Units=km
new line.TR1130928 bus1=BMT101710737.1.2.3,bus2=BMT101710744.1.2.3,Phases=3,Linecode=CABA06_3_3,Length=0.037226000,Units=km
new line.TR1130949 bus1=BMT754559B.1.2.3,bus2=BMT101710590.1.2.3,Phases=3,Linecode=CABA06_3_3,Length=0.038598000,Units=km
new line.TR1130991 bus1=BMT754587B.1.2.3,bus2=BMT754559B.1.2.3,Phases=3,Linecode=CABA06_3_3,Length=0.039457000,Units=km
new line.TR10480639 bus1=BMT2429057B.1.2.3,bus2=BMT6742836B.1.2.3,Phases=3,Linecode=CABA08_3_3,Length=0.030619000,Units=km
new line.TR10814700 bus1=BMT165868203.1.2.3,bus2=BMT165868205.1.2.3,Phases=3,Linecode=CABA06_3_3,Length=0.034142000,Units=km
new line.TR10817871 bus1=BMT166283849.1.2.3,bus2=BMT166283851.1.2.3,Phases=3,Linecode=CABA06_3_3,Length=0.038089000,Units=km
new line.TR1131551 bus1=BMT754958B.1.2.3,bus2=BMT758038B.1.2.3,Phases=3,Linecode=CABA08_3_3,Length=0.048891000,Units=km
new line.TR1131768 bus1=BMT153181935.1.2.3,bus2=BMT755182B.1.2.3,Phases=3,Linecode=CABA06_3_3,Length=0.032766000,Units=km
new line.TR1131782 bus1=BMT755182B.1.2.3,bus2=BMT152960740.1.2.3,Phases=3,Linecode=CABA06_3_3,Length=0.035787000,Units=km
new line.TR1131803 bus1=BMT152960740.1.2.3,bus2=BMT755210B.1.2.3,Phases=3,Linecode=CABA06_3_3,Length=0.032766000,Units=km
new line.TR1131817 bus1=BMT755210B.1.2.3,bus2=BMT153181934.1.2.3,Phases=3,Linecode=CABA06_3_3,Length=0.031915000,Units=km
new line.TR1131824 bus1=BMT153181934.1.2.3,bus2=BMT755231B.1.2.3,Phases=3,Linecode=CABA06_3_3,Length=0.028186000,Units=km
new line.TR1131845 bus1=BMT755231B.1.2.3,bus2=BMT755245B.1.2.3,Phases=3,Linecode=CABA06_3_3,Length=0.026933000,Units=km
new line.TR1131866 bus1=BMT755245B.1.2.3,bus2=BMT153181932.1.2.3,Phases=3,Linecode=CABA06_3_3,Length=0.032258000,Units=km
new line.TR1131943 bus1=BMT755322B.1.2.3,bus2=BMT755385B.1.2.3,Phases=3,Linecode=CABA06_3_3,Length=0.031393000,Units=km
new line.TR1131978 bus1=BMT171848951.1.2.3,bus2=BMT171848952.1.2.3,Phases=3,Linecode=CABA06_3_3,Length=0.031915000,Units=km
new line.TR1131999 bus1=BMT171848952.1.2.3,bus2=BMT755357B.1.2.3,Phases=3,Linecode=CABA06_3_3,Length=0.038959000,Units=km
new line.TR1132027 bus1=BMT755357B.1.2.3,bus2=BMT755378B.1.2.3,Phases=3,Linecode=CABA06_3_3,Length=0.031631000,Units=km
new line.TR1132048 bus1=BMT171848956.1.2.3,bus2=BMT101711101.1.2.3,Phases=3,Linecode=CABA06_3_3,Length=0.032258000,Units=km
new line.TR1132055 bus1=BMT755378B.1.2.3,bus2=BMT171848953.1.2.3,Phases=3,Linecode=CABA06_3_3,Length=0.035857000,Units=km
new line.TR1132062 bus1=BMT755385B.1.2.3,bus2=BMT171848956.1.2.3,Phases=3,Linecode=CABA06_3_3,Length=0.032258000,Units=km
new line.TR1132069 bus1=BMT171848953.1.2.3,bus2=BMT171848955.1.2.3,Phases=3,Linecode=CABA06_3_3,Length=0.035857000,Units=km
new line.TR1132076 bus1=BMT755399B.1.2.3,bus2=BMT755322B.1.2.3,Phases=3,Linecode=CABA06_3_3,Length=0.034491000,Units=km
new line.TR1132083 bus1=BMT171848955.1.2.3,bus2=BMT755399B.1.2.3,Phases=3,Linecode=CABA06_3_3,Length=0.028310000,Units=km
new line.TR1132090 bus1=BMT171848955.1.2.3,bus2=BMT171848957.1.2.3,Phases=3,Linecode=CABA06_3_3,Length=0.031915000,Units=km
new line.TR1132097 bus1=BMT171848957.1.2.3,bus2=BMT171848958.1.2.3,Phases=3,Linecode=CABA06_3_3,Length=0.035365000,Units=km
new line.TR1132146 bus1=BMT165798659.1.2.3,bus2=BMT755469B.1.2.3,Phases=3,Linecode=CABA08_3_3,Length=0.062282000,Units=km
new line.TR1132153 bus1=BMT755469B.1.2.3,bus2=BMT165798660.1.2.3,Phases=3,Linecode=CABA08_3_3,Length=0.031073000,Units=km
new line.TR1132167 bus1=BMT165798660.1.2.3,bus2=BMT165798661.1.2.3,Phases=3,Linecode=CABA08_3_3,Length=0.039126000,Units=km
new line.TR1132181 bus1=BMT165798661.1.2.3,bus2=BMT101708917.1.2.3,Phases=3,Linecode=CAB104_3_3,Length=0.035365000,Units=km
new line.TR1132202 bus1=BMT101708938.1.2.3,bus2=BMT101708945.1.2.3,Phases=3,Linecode=CAB104_3_3,Length=0.075737000,Units=km
new line.TR1132230 bus1=BMT153025103.1.2.3,bus2=BMT755539B.1.2.3,Phases=3,Linecode=CABA06_3_3,Length=0.035857000,Units=km
new line.TR1132237 bus1=BMT162538515.1.2.3,bus2=BMT162538516.1.2.3,Phases=3,Linecode=CABA06_3_3,Length=0.039457000,Units=km
new line.TR1132258 bus1=BMT755539B.1.2.3,bus2=BMT755546B.1.2.3,Phases=3,Linecode=CABA06_3_3,Length=0.029538000,Units=km
new line.TR1132279 bus1=BMT755546B.1.2.3,bus2=BMT101710506.1.2.3,Phases=3,Linecode=CABA06_3_3,Length=0.012534000,Units=km
new line.TR1132307 bus1=BMT158841451.1.2.3,bus2=BMT158841452.1.2.3,Phases=3,Linecode=CAB103_3_3,Length=0.024604000,Units=km
new line.TR1132328 bus1=BMT158841452.1.2.3,bus2=BMT158841453.1.2.3,Phases=3,Linecode=CABA06_3_3,Length=0.042556000,Units=km
new line.TR1132335 bus1=BMT158841452.1.2.3,bus2=BMT755581B.1.2.3,Phases=3,Linecode=CABA06_3_3,Length=0.037746000,Units=km
new line.TR1132377 bus1=BMT755581B.1.2.3,bus2=BMT158841454.1.2.3,Phases=3,Linecode=CABA06_3_3,Length=0.036725000,Units=km
new line.TR1132412 bus1=BMT158841454.1.2.3,bus2=BMT158841455.1.2.3,Phases=3,Linecode=CABA06_3_3,Length=0.039457000,Units=km
new line.TR1132419 bus1=BMT158841454.1.2.3,bus2=BMT755609B.1.2.3,Phases=3,Linecode=CABA06_3_3,Length=0.036065000,Units=km
new line.TR1132454 bus1=BMT755609B.1.2.3,bus2=BMT151765111.1.2.3,Phases=3,Linecode=CABA06_3_3,Length=0.033625000,Units=km
new line.TR1132503 bus1=BMT151765111.1.2.3,bus2=BMT158841456.1.2.3,Phases=3,Linecode=CABA06_3_3,Length=0.037746000,Units=km
new line.TR1132517 bus1=BMT158841456.1.2.3,bus2=BMT158841457.1.2.3,Phases=3,Linecode=CABA06_3_3,Length=0.034995000,Units=km
new line.TR1132559 bus1=BMT755714B.1.2.3,bus2=BMT129593543.1.2.3,Phases=3,Linecode=CABA06_3_3,Length=0.040322000,Units=km
new line.TR1132594 bus1=BMT755742B.1.2.3,bus2=BMT755714B.1.2.3,Phases=3,Linecode=CABA06_3_3,Length=0.037226000,Units=km
new line.TR1132615 bus1=BMT129593529.1.2.3,bus2=BMT755742B.1.2.3,Phases=3,Linecode=CABA06_3_3,Length=0.038598000,Units=km
new line.TR1132622 bus1=BMT129593529.1.2.3,bus2=BMT757366B.1.2.3,Phases=3,Linecode=CABA06_3_3,Length=0.039836000,Units=km
new line.TR1132643 bus1=BMT755756B.1.2.3,bus2=BMT129593529.1.2.3,Phases=3,Linecode=CABA06_3_3,Length=0.040322000,Units=km
new line.TR1133084 bus1=BMT160707568.1.2.3,bus2=BMT756036B.1.2.3,Phases=3,Linecode=CABA06_3_3,Length=0.046078000,Units=km
new line.TR1133091 bus1=BMT160707568.1.2.3,bus2=BMT756043B.1.2.3,Phases=3,Linecode=CABA06_3_3,Length=0.033625000,Units=km
new line.TR1133112 bus1=BMT756036B.1.2.3,bus2=BMT160707569.1.2.3,Phases=3,Linecode=CABA06_3_3,Length=0.048891000,Units=km
new line.TR1133126 bus1=BMT756043B.1.2.3,bus2=BMT757261B.1.2.3,Phases=3,Linecode=CABA06_3_3,Length=0.035365000,Units=km
new line.TR1133133 bus1=BMT160707569.1.2.3,bus2=BMT756057B.1.2.3,Phases=3,Linecode=CABA06_3_3,Length=0.047023000,Units=km
new line.TR1133140 bus1=BMT756057B.1.2.3,bus2=BMT2601873B.1.2.3,Phases=3,Linecode=CABA06_3_3,Length=0.048387000,Units=km
new line.TR1133161 bus1=BMT166283846.1.2.3,bus2=BMT166283847.1.2.3,Phases=3,Linecode=CABA06_3_3,Length=0.036065000,Units=km
new line.TR1133168 bus1=BMT166283846.1,bus2=BMT101711346.1,Phases=1,Linecode=CABA06_3_1,Length=0.034679000,Units=km
new line.TR1133189 bus1=BMT166283848.1.2.3,bus2=BMT3185701B.1.2.3,Phases=3,Linecode=CABA08_3_3,Length=0.032258000,Units=km
new line.TR10860522 bus1=BMT101709001.1.2.3,bus2=BMT101708994.1.2.3,Phases=3,Linecode=CABA06_3_3,Length=0.022210000,Units=km
new line.TR10860529 bus1=BMT761706B.1.2.3,bus2=BMT101708994.1.2.3,Phases=3,Linecode=CABA06_3_3,Length=0.045816000,Units=km
new line.TR10860613 bus1=BMT153754659.1.2.3,bus2=BMT3274174B.1.2.3,Phases=3,Linecode=CAB103_3_3,Length=0.017268000,Units=km
new line.TR11064096 bus1=BMT160426279.2,bus2=BMT7287184B.2,Phases=1,Linecode=CAB103_3_1,Length=0.039329000,Units=km
new line.TR11064341 bus1=BMT7287184B.2,bus2=BMT160426280.2,Phases=1,Linecode=CAB103_3_1,Length=0.040322000,Units=km
new line.TR11066070 bus1=BMT129593557.1.2.3,bus2=BMT757359B.1.2.3,Phases=3,Linecode=CABA06_3_3,Length=0.037226000,Units=km
new line.TR11066091 bus1=BMT757359B.1.2.3,bus2=BMT129593571.1.2.3,Phases=3,Linecode=CABA06_3_3,Length=0.041689000,Units=km
new line.TR11198013 bus1=BMT154287724.1.2.3,bus2=BMT2600389B.1.2.3,Phases=3,Linecode=CABA08_3_3,Length=0.032258000,Units=km
new line.TR11198020 bus1=BMT2600389B.1.2.3,bus2=BMT2600396B.1.2.3,Phases=3,Linecode=CABA08_3_3,Length=0.034995000,Units=km
new line.TR11198027 bus1=BMT2600396B.1.2.3,bus2=BMT2600403B.1.2.3,Phases=3,Linecode=CABA08_3_3,Length=0.032766000,Units=km
new line.TR11198034 bus1=BMT2600403B.1.2.3,bus2=BMT154287723.1.2.3,Phases=3,Linecode=CABA08_3_3,Length=0.034491000,Units=km
new line.TR1136381 bus1=BMT757905B.1.2.3,bus2=BMT173173636.1.2.3,Phases=3,Linecode=CAB103_3_3,Length=0.034419000,Units=km
new line.TR1136395 bus1=BMT757912B.1.2.3,bus2=BMT757520B.1.2.3,Phases=3,Linecode=CAB103_3_3,Length=0.037212000,Units=km
new line.TR1136416 bus1=BMT173173635.1.2.3,bus2=BMT757772B.1.2.3,Phases=3,Linecode=CAB103_3_3,Length=0.037212000,Units=km
new line.TR1136423 bus1=BMT173173635.1.2.3,bus2=BMT757786B.1.2.3,Phases=3,Linecode=CAB103_3_3,Length=0.036507000,Units=km
new line.TR1136430 bus1=BMT173173635.1.2.3,bus2=BMT757912B.1.2.3,Phases=3,Linecode=CAB103_3_3,Length=0.034215000,Units=km
new line.TR1136451 bus1=BMT129593522.1.2.3,bus2=BMT755756B.1.2.3,Phases=3,Linecode=CABA06_3_3,Length=0.042071000,Units=km
new line.TR1136458 bus1=BMT129593522.1.2.3,bus2=BMT757933B.1.2.3,Phases=3,Linecode=CABA06_3_3,Length=0.041496000,Units=km
new line.TR1136479 bus1=BMT757933B.1.2.3,bus2=BMT757947B.1.2.3,Phases=3,Linecode=CABA06_3_3,Length=0.040322000,Units=km
new line.TR1136500 bus1=BMT757940B.1.2.3,bus2=BMT129593522.1.2.3,Phases=3,Linecode=CABA06_3_3,Length=0.029690000,Units=km
new line.TR1136521 bus1=BMT757947B.1.2.3,bus2=BMT129593536.1.2.3,Phases=3,Linecode=CABA06_3_3,Length=0.040828000,Units=km
new line.TR1136591 bus1=BMT165868203.1.2.3,bus2=BMT758465B.1.2.3,Phases=3,Linecode=CABA08_3_3,Length=0.043474000,Units=km
new line.TR1136612 bus1=BMT757989B.1.2.3,bus2=BMT165868203.1.2.3,Phases=3,Linecode=CABA08_3_3,Length=0.021639000,Units=km
new line.TR1136626 bus1=BMT165868204.1.2.3,bus2=BMT757989B.1.2.3,Phases=3,Linecode=CABA08_3_3,Length=0.035351000,Units=km
new line.TR1136647 bus1=BMT129593515.1.2.3,bus2=BMT757940B.1.2.3,Phases=3,Linecode=CABA06_3_3,Length=0.030025000,Units=km
new line.TR1136654 bus1=BMT101711507.1.2.3,bus2=BMT165868204.1.2.3,Phases=3,Linecode=CABA08_3_3,Length=0.038024000,Units=km
new line.TR1136661 bus1=BMT165868206.1.2.3,bus2=BMT101711507.1.2.3,Phases=3,Linecode=CABA08_3_3,Length=0.035520000,Units=km
new line.TR1136675 bus1=BMT758017B.1.2.3,bus2=BMT165868206.1.2.3,Phases=3,Linecode=CABA08_3_3,Length=0.038089000,Units=km
new line.TR1136682 bus1=BMT758024B.1.2.3,bus2=BMT758017B.1.2.3,Phases=3,Linecode=CABA08_3_3,Length=0.037226000,Units=km
new line.TR1136710 bus1=BMT758038B.1.2.3,bus2=BMT758024B.1.2.3,Phases=3,Linecode=CABA08_3_3,Length=0.033130000,Units=km
new line.TR1136787 bus1=BMT758080B.1.2.3,bus2=BMT101710856.1.2.3,Phases=3,Linecode=CABA08_3_3,Length=0.037226000,Units=km
new line.TR1136815 bus1=BMT758094B.1.2.3,bus2=BMT758080B.1.2.3,Phases=3,Linecode=CABA08_3_3,Length=0.037746000,Units=km
new line.TR1136857 bus1=BMT758115B.1.2.3,bus2=BMT758094B.1.2.3,Phases=3,Linecode=CABA08_3_3,Length=0.034895000,Units=km
new line.TR1136885 bus1=BMT758136B.1.2.3,bus2=BMT758115B.1.2.3,Phases=3,Linecode=CABA08_3_3,Length=0.035857000,Units=km
new line.TR1136927 bus1=BMT155720474.1.2.3,bus2=BMT758136B.1.2.3,Phases=3,Linecode=CABA08_3_3,Length=0.033625000,Units=km
...
