2024_89_CemigReconfigurationCases/1_AlimsCemig/MDH08/MDH08ChavesMT.dss
new line.CTR141527 bus1=BMT101711689.1.2.3,bus2=BMT101711710.1.2.3,Phases=3,LineCode=tieSwitch,Length=0.001,Units=km,switch=T !numEQ 91051
new line.CTR171949 bus1=BMT101708868.1.2.3,bus2=BMT131843357.1.2.3,Phases=3,LineCode=tieSwitch,Length=0.001,Units=km,switch=T !numEQ 150491
new line.CTR200817 bus1=BMT159046940.1.2.3,bus2=BMT101710646.1.2.3,Phases=3,LineCode=tieSwitch,Length=0.001,Units=km,switch=T !numEQ 150762
new line.CTR36975 bus1=BMT101708672.1.2.3,bus2=BMT129602328.1.2.3,Phases=3,LineCode=tieSwitch,Length=0.001,Units=km,switch=T !numEQ 90928
new line.CTR370700 bus1=BMT101708231.1.2.3,bus2=BMT101708245.1.2.3,Phases=3,LineCode=tieSwitch,Length=0.001,Units=km,switch=T !numEQ 148978
new line.CTR371092 bus1=BMT101708581.1.2.3,bus2=BMT163893350.1.2.3,Phases=3,LineCode=tieSwitch,Length=0.001,Units=km,switch=T !numEQ 150761
new line.CTR372464 bus1=BMT101711507.1.2.3,bus2=BMT129593515.1.2.3,Phases=3,LineCode=tieSwitch,Length=0.001,Units=km,switch=T !numEQ 150495
new line.CTR42029 bus1=BMT101712116.1.2.3,bus2=BMT101712284.1.2.3,Phases=3,LineCode=tieSwitch,Length=0.001,Units=km,switch=T !numEQ 90092
new line.CTR518253 bus1=BMT101709365.2,bus2=BMT101709596.2,Phases=1,LineCode=tieSwitch1,Length=0.001,Units=km,switch=T !numEQ 148579
new line.CTR518281 bus1=BMT101709379.2,bus2=BMT160426267.2,Phases=1,LineCode=tieSwitch1,Length=0.001,Units=km,switch=T !numEQ 148533
new line.CTR702969 bus1=BMT101709848.1.2.3,bus2=BMT101709855.1.2.3,Phases=3,LineCode=tieSwitch,Length=0.001,Units=km,switch=T !numEQ 195217
new line.CTR703053 bus1=BMT150773476.1.2.3,bus2=BMT101709911.1.2.3,Phases=3,LineCode=tieSwitch,Length=0.001,Units=km,switch=T !numEQ 195219
new line.CTR842983 bus1=BMT139641868.1.2.3,bus2=BMT160396559.1.2.3,Phases=3,LineCode=tieSwitch,Length=0.001,Units=km,switch=T !numEQ 314624
new line.CTR842990 bus1=BMT139642239.1.2.3,bus2=BMT150343787.1.2.3,Phases=3,LineCode=tieSwitch,Length=0.001,Units=km,switch=T !numEQ 314623
new line.CTR844521 bus1=BMT148353592.1.2.3,bus2=BMT148353595.1.2.3,Phases=3,LineCode=tieSwitch,Length=0.001,Units=km,switch=T !numEQ 311496
new line.CTR844522 bus1=BMT148353629.1.2.3,bus2=BMT148353632.1.2.3,Phases=3,LineCode=tieSwitch,Length=0.001,Units=km,switch=T !numEQ 313674
new line.CTR879980 bus1=BMT158876393.1.2.3,bus2=BMT162785149.1.2.3,Phases=3,LineCode=tieSwitch,Length=0.001,Units=km,switch=T !numEQ 314303
new line.CTR897477 bus1=BMT165798662.1.2.3,bus2=BMT165798759.1.2.3,Phases=3,LineCode=tieSwitch,Length=0.001,Units=km,switch=T !numEQ 257062
new line.CTR897478 bus1=BMT165798761.1.2.3,bus2=BMT165798943.1.2.3,Phases=3,LineCode=tieSwitch,Length=0.001,Units=km,switch=T !numEQ 257063
new line.CTRR11229 bus1=BMT101711759.1.2.3,bus2=BMT165866165.1.2.3,Phases=3,LineCode=tieSwitch,Length=0.001,Units=km,switch=T !numEQ 199984
new line.CTR105274 bus1=BMT101709225.1.2.3,bus2=BMT101709750.1.2.3,Phases=3,LineCode=tieSwitch,Length=0.001,Units=km,switch=T !numEQ 91047
new line.CTR117839 bus1=BMT149816512.1.2.3,bus2=BMT149819229.1.2.3,Phases=3,LineCode=tieSwitch,Length=0.001,Units=km,switch=T !numEQ 296364
new line.CTR159601 bus1=BMT101708679.1.2.3,bus2=BMT139641847.1.2.3,Phases=3,LineCode=tieSwitch,Length=0.001,Units=km,switch=T !numEQ 90592
new line.CTR249684 bus1=BMT101710814.1.2.3,bus2=BMT159181666.1.2.3,Phases=3,LineCode=tieSwitch,Length=0.001,Units=km,switch=T !numEQ 151140
new line.CTR324192 bus1=BMT101708042.1.2.3,bus2=BMT101708049.1.2.3,Phases=3,LineCode=tieSwitch,Length=0.001,Units=km,switch=T !numEQ 90120
new line.CTR324199 bus1=BMT101708119.1.2.3,bus2=BMT165866037.1.2.3,Phases=3,LineCode=tieSwitch,Length=0.001,Units=km,switch=T !numEQ 312867
new line.CTR324213 bus1=BMT101712151.1.2.3,bus2=BMT167181662.1.2.3,Phases=3,LineCode=tieSwitch,Length=0.001,Units=km,switch=T !numEQ 90156
new line.CTR324227 bus1=BMT101712235.1.2.3,bus2=BMT101712270.1.2.3,Phases=3,LineCode=tieSwitch,Length=0.001,Units=km,switch=T !numEQ 90094
new line.CTR324241 bus1=BMT101711864.1.2.3,bus2=BMT101711871.1.2.3,Phases=3,LineCode=tieSwitch,Length=0.001,Units=km,switch=T !numEQ 90096
new line.CTR324255 bus1=BMT101711969.1.2.3,bus2=BMT166322563.1.2.3,Phases=3,LineCode=tieSwitch,Length=0.001,Units=km,switch=T !numEQ 90560
new line.CTR325053 bus1=BMT101709029.1.2.3,bus2=BMT101710086.1.2.3,Phases=3,LineCode=tieSwitch,Length=0.001,Units=km,switch=T !numEQ 111899
new line.CTR42925 bus1=BMT101709666.2,bus2=BMT164913021.2,Phases=1,LineCode=tieSwitch1,Length=0.001,Units=km,switch=T !numEQ 206438
new line.CTR526919 bus1=BMT101328901.1.2.3,bus2=BMT116784817.1.2.3,Phases=3,LineCode=tieSwitch,Length=0.001,Units=km,switch=T !numEQ 62900
new line.CTR529852 bus1=BMT101710317.1.2.3,bus2=BMT101710331.1.2.3,Phases=3,LineCode=tieSwitch,Length=0.001,Units=km,switch=T !numEQ 6203
new line.CTR628867 bus1=BMT101708483.1.2.3,bus2=BMT163792205.1.2.3,Phases=3,LineCode=tieSwitch,Length=0.001,Units=km,switch=T !numEQ 218857
new line.CTR656650 bus1=BMT139641882.1.2.3,bus2=BMT101708756.1.2.3,Phases=3,LineCode=tieSwitch,Length=0.001,Units=km,switch=T !numEQ 150490
new line.CTR661004 bus1=BMT163893355.1.2.3,bus2=BMT101708630.1.2.3,Phases=3,LineCode=tieSwitch,Length=0.001,Units=km,switch=T !numEQ 90847
new line.CTR727882 bus1=BMT151228738.1.2.3,bus2=BMT61218299.1.2.3,Phases=3,LineCode=tieSwitch,Length=0.001,Units=km,switch=T !numEQ 226412
open line.CTR727882 term=1
new line.CTR728043 bus1=BMT101709974.1,bus2=BMT149948115.1,Phases=1,LineCode=tieSwitch1,Length=0.001,Units=km,switch=T !numEQ 226413
new line.CTR728624 bus1=BMT101710856.1.2.3,bus2=BMT170054598.1.2.3,Phases=3,LineCode=tieSwitch,Length=0.001,Units=km,switch=T !numEQ 191880
new line.CTR729401 bus1=BMT130288482.1.2.3,bus2=BMT160178492.1.2.3,Phases=3,LineCode=tieSwitch,Length=0.001,Units=km,switch=T !numEQ 149902
new line.CTR786017 bus1=BMT105693800.1,bus2=BMT105693814.1,Phases=1,LineCode=tieSwitch1,Length=0.001,Units=km,switch=T !numEQ 300258
new line.CTR788985 bus1=BMT107190029.1.2.3,bus2=BMT107190246.1.2.3,Phases=3,LineCode=tieSwitch,Length=0.001,Units=km,switch=T !numEQ 301700
new line.CTR826491 bus1=BMT133501020.1.2.3,bus2=BMT133501167.1.2.3,Phases=3,LineCode=tieSwitch,Length=0.001,Units=km,switch=T !numEQ 307671
new line.CTR849833 bus1=BMT149819231.1.2.3,bus2=BMT170995809.1.2.3,Phases=3,LineCode=tieSwitch,Length=0.001,Units=km,switch=T !numEQ 299260
new line.CTR868612 bus1=BMT155279324.1.2.3,bus2=BMT155279325.1.2.3,Phases=3,LineCode=tieSwitch,Length=0.001,Units=km,switch=T !numEQ 312871
new line.CTRR36295 bus1=BMT159701466.2,bus2=BMT165016132.2,Phases=1,LineCode=tieSwitch1,Length=0.001,Units=km,switch=T !numEQ 255609
new line.CTRR36623 bus1=BMT160588648.1,bus2=BMT160588651.1,Phases=1,LineCode=tieSwitch1,Length=0.001,Units=km,switch=T !numEQ 262741
new line.CTR164011 bus1=BMT101711493.1.2.3,bus2=BMT129570345.1.2.3,Phases=3,LineCode=tieSwitch,Length=0.001,Units=km,switch=T !numEQ 148539
new line.CTR180279 bus1=BMT151228732.1.2.3,bus2=BMT151228736.1.2.3,Phases=3,LineCode=tieSwitch,Length=0.001,Units=km,switch=T !numEQ 139947
new line.CTR308918 bus1=BMT101710506.1.2.3,bus2=BMT101710562.1.2.3,Phases=3,LineCode=tieSwitch,Length=0.001,Units=km,switch=T !numEQ 149627
new line.CTR343442 bus1=BMT131477677.1.2.3,bus2=BMT131477698.1.2.3,Phases=3,LineCode=tieSwitch,Length=0.001,Units=km,switch=T !numEQ 91043
new line.CTR536033 bus1=BMT101709085.1.2.3,bus2=BMT165561372.1.2.3,Phases=3,LineCode=tieSwitch,Length=0.001,Units=km,switch=T !numEQ 8547
new line.CTR601028 bus1=BMT101709134.1.2.3,bus2=BMT170846245.1.2.3,Phases=3,LineCode=tieSwitch,Length=0.001,Units=km,switch=T !numEQ 90657
new line.CTR654018 bus1=BMT166283847.1.2.3,bus2=BMT101711339.1.2.3,Phases=3,LineCode=tieSwitch,Length=0.001,Units=km,switch=T !numEQ 218856
open line.CTR654018 term=1
new line.CTR719335 bus1=BMT113390412.1.2.3,bus2=BMT150342648.1.2.3,Phases=3,LineCode=tieSwitch,Length=0.001,Units=km,switch=T !numEQ 212605
new line.CTR719342 bus1=BMT101709820.1.2.3,bus2=BMT101709827.1.2.3,Phases=3,LineCode=tieSwitch,Length=0.001,Units=km,switch=T !numEQ 212606
new line.CTR723878 bus1=BMT101708994.1.2.3,bus2=BMT153754659.1.2.3,Phases=3,LineCode=tieSwitch,Length=0.001,Units=km,switch=T !numEQ 212614
new line.CTR794025 bus1=BMT110300178.1.2.3,bus2=BMT165848619.1.2.3,Phases=3,LineCode=tieSwitch,Length=0.001,Units=km,switch=T !numEQ 90586
new line.CTR797161 bus1=BMT112292217.1.2.3,bus2=BMT160423423.1.2.3,Phases=3,LineCode=tieSwitch,Length=0.001,Units=km,switch=T !numEQ 299288
new line.CTR801599 bus1=BMT128033285.1.2.3,bus2=BMT165578322.1.2.3,Phases=3,LineCode=tieSwitch,Length=0.001,Units=km,switch=T !numEQ 292509
new line.CTR801606 bus1=BMT114858354.1.2.3,bus2=BMT165578327.1.2.3,Phases=3,LineCode=tieSwitch,Length=0.001,Units=km,switch=T !numEQ 292510
new line.CTR801613 bus1=BMT165578332.1.2.3,bus2=BMT114863562.1.2.3,Phases=3,LineCode=tieSwitch,Length=0.001,Units=km,switch=T !numEQ 292508
new line.CTR846873 bus1=BMT153500242.1.2.3,bus2=BMT150936620.1.2.3,Phases=3,LineCode=tieSwitch,Length=0.001,Units=km,switch=T !numEQ 304221
new line.CTR846941 bus1=BMT154990439.1.2.3,bus2=BMT149003744.1.2.3,Phases=3,LineCode=tieSwitch,Length=0.001,Units=km,switch=T !numEQ 304222
open line.CTR846941 term=1
new line.CTR851604 bus1=BMT163593653.1.2.3,bus2=BMT150505170.1.2.3,Phases=3,LineCode=tieSwitch,Length=0.001,Units=km,switch=T !numEQ 296371
new line.CTR851606 bus1=BMT150534867.1.2.3,bus2=BMT170995817.1.2.3,Phases=3,LineCode=tieSwitch,Length=0.001,Units=km,switch=T !numEQ 296776
new line.CTR851650 bus1=BMT150514605.1.2.3,bus2=BMT163586421.1.2.3,Phases=3,LineCode=tieSwitch,Length=0.001,Units=km,switch=T !numEQ 296375
new line.CTR851651 bus1=BMT163586424.1.2.3,bus2=BMT150513860.1.2.3,Phases=3,LineCode=tieSwitch,Length=0.001,Units=km,switch=T !numEQ 296374
new line.CTR851652 bus1=BMT170995820.1.2.3,bus2=BMT150534887.1.2.3,Phases=3,LineCode=tieSwitch,Length=0.001,Units=km,switch=T !numEQ 296777
new line.CTR851653 bus1=BMT150503463.1.2.3,bus2=BMT163596182.1.2.3,Phases=3,LineCode=tieSwitch,Length=0.001,Units=km,switch=T !numEQ 296369
new line.CTR851657 bus1=BMT150506811.1.2.3,bus2=BMT150507255.1.2.3,Phases=3,LineCode=tieSwitch,Length=0.001,Units=km,switch=T !numEQ 296373
new line.CTR851660 bus1=BMT150505205.1.2.3,bus2=BMT163593650.1.2.3,Phases=3,LineCode=tieSwitch,Length=0.001,Units=km,switch=T !numEQ 296372
new line.CTR207551 bus1=BMT101710422.1.2.3,bus2=BMT159046931.1.2.3,Phases=3,LineCode=tieSwitch,Length=0.001,Units=km,switch=T !numEQ 286189
new line.CTR253814 bus1=BMT131477775.1.2.3,bus2=BMT170295088.1.2.3,Phases=3,LineCode=tieSwitch,Length=0.001,Units=km,switch=T !numEQ 128659
new line.CTR278496 bus1=BMT101708616.1.2.3,bus2=BMT101710359.1.2.3,Phases=3,LineCode=tieSwitch,Length=0.001,Units=km,switch=T !numEQ 139364
new line.CTR310584 bus1=BMT155720485.1.2.3,bus2=BMT151218505.1.2.3,Phases=3,LineCode=tieSwitch,Length=0.001,Units=km,switch=T !numEQ 379583
new line.CTR491219 bus1=BMT101710464.1.2.3,bus2=BMT101710478.1.2.3,Phases=3,LineCode=tieSwitch,Length=0.001,Units=km,switch=T !numEQ 194650
new line.CTR491233 bus1=BMT101710436.1.2.3,bus2=BMT167821676.1.2.3,Phases=3,LineCode=tieSwitch,Length=0.001,Units=km,switch=T !numEQ 195167
new line.CTR491240 bus1=BMT101710443.1.2.3,bus2=BMT158841450.1.2.3,Phases=3,LineCode=tieSwitch,Length=0.001,Units=km,switch=T !numEQ 384131
new line.CTR494320 bus1=BMT101711087.1.2.3,bus2=BMT150341337.1.2.3,Phases=3,LineCode=tieSwitch,Length=0.001,Units=km,switch=T !numEQ 194738
new line.CTR669488 bus1=BMT101711101.1.2.3,bus2=BMT101711108.1.2.3,Phases=3,LineCode=tieSwitch,Length=0.001,Units=km,switch=T !numEQ 14275
new line.CTR674164 bus1=BMT101708511.1.2.3,bus2=BMT165570830.1.2.3,Phases=3,LineCode=tieSwitch,Length=0.001,Units=km,switch=T !numEQ 150504
new line.CTR809019 bus1=BMT121370874.1.2.3,bus2=BMT121370881.1.2.3,Phases=3,LineCode=tieSwitch,Length=0.001,Units=km,switch=T !numEQ 303153
new line.CTR809061 bus1=BMT121395598.1.2.3,bus2=BMT170120149.1.2.3,Phases=3,LineCode=tieSwitch,Length=0.001,Units=km,switch=T !numEQ 304981
new line.CTR853143 bus1=BMT150793262.1.2.3,bus2=BMT160647686.1.2.3,Phases=3,LineCode=tieSwitch,Length=0.001,Units=km,switch=T !numEQ 381075
new line.CTR853595 bus1=BMT159833856.1.2.3,bus2=BMT150936369.1.2.3,Phases=3,LineCode=tieSwitch,Length=0.001,Units=km,switch=T !numEQ 304219
new line.CTR853597 bus1=BMT150936597.1.2.3,bus2=BMT153500240.1.2.3,Phases=3,LineCode=tieSwitch,Length=0.001,Units=km,switch=T !numEQ 304220
new line.CTR854540 bus1=BMT151219205.1.2.3,bus2=BMT161730791.1.2.3,Phases=3,LineCode=tieSwitch,Length=0.001,Units=km,switch=T !numEQ 304217
new line.CTR854556 bus1=BMT151225152.1.2.3,bus2=BMT159182248.1.2.3,Phases=3,LineCode=tieSwitch,Length=0.001,Units=km,switch=T !numEQ 304215
new line.CTRR33339 bus1=BMT166721622.1.2.3,bus2=BMT153489349.1.2.3,Phases=3,LineCode=tieSwitch,Length=0.001,Units=km,switch=T !numEQ 312863
new line.CTRR34007 bus1=BMT154774624.1.2.3,bus2=BMT166325180.1.2.3,Phases=3,LineCode=tieSwitch,Length=0.001,Units=km,switch=T !numEQ 313678
new line.CTR169499 bus1=BMT129630741.1.2.3,bus2=BMT171848951.1.2.3,Phases=3,LineCode=tieSwitch,Length=0.001,Units=km,switch=T !numEQ 318752
new line.CTR184528 bus1=BMT150522426.1.2.3,bus2=BMT150522427.1.2.3,Phases=3,LineCode=tieSwitch,Length=0.001,Units=km,switch=T !numEQ 147952
new line.CTR218842 bus1=BMT101708798.1.2.3,bus2=BMT101708826.1.2.3,Phases=3,LineCode=tieSwitch,Length=0.001,Units=km,switch=T !numEQ 150731
new line.CTR264769 bus1=BMT101709001.1.2.3,bus2=BMT101709008.1.2.3,Phases=3,LineCode=tieSwitch,Length=0.001,Units=km,switch=T !numEQ 149968
new line.CTR292510 bus1=BMT101710380.1.2.3,bus2=BMT101710772.1.2.3,Phases=3,LineCode=tieSwitch,Length=0.001,Units=km,switch=T !numEQ 112549
new line.CTR525498 bus1=BMT4687684.1.2.3,bus2=BMT101328922.1.2.3,Phases=3,LineCode=tieSwitch,Length=0.001,Units=km,switch=T !numEQ 64579
new line.CTR640662 bus1=BMT101709925.1,bus2=BMT160588647.1,Phases=1,LineCode=tieSwitch1,Length=0.001,Units=km,switch=T !numEQ 195239
new line.CTR640718 bus1=BMT165501988.1.2.3,bus2=BMT165503011.1.2.3,Phases=3,LineCode=tieSwitch,Length=0.001,Units=km,switch=T !numEQ 195216
new line.CTR643742 bus1=BMT101711346.1,bus2=BMT166283852.1,Phases=1,LineCode=tieSwitch1,Length=0.001,Units=km,switch=T !numEQ 310765
new line.CTR699147 bus1=BMT101709876.1.2.3,bus2=BMT150773473.1.2.3,Phases=3,LineCode=tieSwitch,Length=0.001,Units=km,switch=T !numEQ 149402
new line.CTR769854 bus1=BMT101710219.1.2.3,bus2=BMT101710226.1.2.3,Phases=3,LineCode=tieSwitch,Length=0.001,Units=km,switch=T !numEQ 285415
new line.CTR775685 bus1=BMT101708147.1.2.3,bus2=BMT101711724.1.2.3,Phases=3,LineCode=tieSwitch,Length=0.001,Units=km,switch=T !numEQ 292766
new line.CTR775692 bus1=BMT101711731.1.2.3,bus2=BMT101711738.1.2.3,Phases=3,LineCode=tieSwitch,Length=0.001,Units=km,switch=T !numEQ 292767
new line.CTR860655 bus1=BMT165868208.1.2.3,bus2=BMT153664569.1.2.3,Phases=3,LineCode=tieSwitch,Length=0.001,Units=km,switch=T !numEQ 235400
new line.CTR860690 bus1=BMT153481432.1.2.3,bus2=BMT165868201.1.2.3,Phases=3,LineCode=tieSwitch,Length=0.001,Units=km,switch=T !numEQ 312861
new line.CTR860707 bus1=BMT165436117.1.2.3,bus2=BMT152965092.1.2.3,Phases=3,LineCode=tieSwitch,Length=0.001,Units=km,switch=T !numEQ 312866
new line.CTR860709 bus1=BMT165436114.1.2.3,bus2=BMT165436115.1.2.3,Phases=3,LineCode=tieSwitch,Length=0.001,Units=km,switch=T !numEQ 312884
new line.CTR860724 bus1=BMT155279286.1.2.3,bus2=BMT165864959.1.2.3,Phases=3,LineCode=tieSwitch,Length=0.001,Units=km,switch=T !numEQ 312869
new line.CTR860972 bus1=BMT153025103.1.2.3,bus2=BMT162538515.1.2.3,Phases=3,LineCode=tieSwitch,Length=0.001,Units=km,switch=T !numEQ 177351
new line.CTR860991 bus1=BMT165866057.1.2.3,bus2=BMT153177357.1.2.3,Phases=3,LineCode=tieSwitch,Length=0.001,Units=km,switch=T !numEQ 310757
open line.CTR860991 term=1
new line.CTR880444 bus1=BMT159040501.1.2.3,bus2=BMT159040808.1.2.3,Phases=3,LineCode=tieSwitch,Length=0.001,Units=km,switch=T !numEQ 251464
new line.CTR880446 bus1=BMT159040780.1.2.3,bus2=BMT159040782.1.2.3,Phases=3,LineCode=tieSwitch,Length=0.001,Units=km,switch=T !numEQ 251463
new line.CTRR6014 bus1=BMT101708917.1.2.3,bus2=BMT101708931.1.2.3,Phases=3,LineCode=tieSwitch,Length=0.001,Units=km,switch=T !numEQ 149605
new line.CTRR6462 bus1=BMT101708196.1.2.3,bus2=BMT133252926.1.2.3,Phases=3,LineCode=tieSwitch,Length=0.001,Units=km,switch=T !numEQ 196977
new line.CTR121353 bus1=BMT101708959.1.2.3,bus2=BMT105823293.1.2.3,Phases=3,LineCode=tieSwitch,Length=0.001,Units=km,switch=T !numEQ 128428
new line.CTR232289 bus1=BMT101708140.1.2.3,bus2=BMT101711647.1.2.3,Phases=3,LineCode=tieSwitch,Length=0.001,Units=km,switch=T !numEQ 90646
new line.CTR2332536 bus1=BMT2200577072.1.2.3,bus2=BMT2002332669.1.2.3,Phases=3,LineCode=tieSwitch,Length=0.001,Units=km,switch=T !numEQ 
new line.CTR2332639 bus1=BMT2002332315.1.2.3,bus2=BMT2200577072.1.2.3,Phases=3,LineCode=tieSwitch,Length=0.001,Units=km,switch=T !numEQ 
new line.CTR2332668 bus1=BMT2002332669.1.2.3,bus2=BMT2002332523.1.2.3,Phases=3,LineCode=tieSwitch,Length=0.001,Units=km,switch=T !numEQ 
new line.CTR234417 bus1=BMT163594381.1.2.3,bus2=BMT150502992.1.2.3,Phases=3,LineCode=tieSwitch,Length=0.001,Units=km,switch=T !numEQ 296370
open line.CTR234417 term=1
new line.CTR260338 bus1=BMT101708385.1.2.3,bus2=BMT130008482.1.2.3,Phases=3,LineCode=tieSwitch,Length=0.001,Units=km,switch=T !numEQ 91057
new line.CTR261325 bus1=BMT101710093.2,bus2=BMT101710107.2,Phases=1,LineCode=tieSwitch1,Length=0.001,Units=km,switch=T !numEQ 136174
new line.CTR363056 bus1=BMT101711682.1.2.3,bus2=BMT101711696.1.2.3,Phases=3,LineCode=tieSwitch,Length=0.001,Units=km,switch=T !numEQ 91049
new line.CTR363231 bus1=BMT101708791.1.2.3,bus2=BMT101708812.1.2.3,Phases=3,LineCode=tieSwitch,Length=0.001,Units=km,switch=T !numEQ 138427
new line.CTR503931 bus1=BMT101711360.1.2.3,bus2=BMT101711416.1.2.3,Phases=3,LineCode=tieSwitch,Length=0.001,Units=km,switch=T !numEQ 151226
new line.CTR559777 bus1=BMT101708889.1.2.3,bus2=BMT154408210.1.2.3,Phases=3,LineCode=tieSwitch,Length=0.001,Units=km,switch=T !numEQ 285464
new line.CTR559805 bus1=BMT101709022.1.2.3,bus2=BMT101709036.1.2.3,Phases=3,LineCode=tieSwitch,Length=0.001,Units=km,switch=T !numEQ 9564
new line.CTR685014 bus1=BMT101711654.1.2.3,bus2=BMT101711661.1.2.3,Phases=3,LineCode=tieSwitch,Length=0.001,Units=km,switch=T !numEQ 195106
new line.CTR752543 bus1=BMT101710590.1.2.3,bus2=BMT101710737.1.2.3,Phases=3,LineCode=tieSwitch,Length=0.001,Units=km,switch=T !numEQ 191876
new line.CTR822032 bus1=BMT165561376.1.2.3,bus2=BMT131150007.1.2.3,Phases=3,LineCode=tieSwitch,Length=0.001,Units=km,switch=T !numEQ 306300
new line.CTR823243 bus1=BMT131843364.1.2.3,bus2=BMT165798657.1.2.3,Phases=3,LineCode=tieSwitch,Length=0.001,Units=km,switch=T !numEQ 11065
new line.CTR856492 bus1=BMT151765111.1.2.3,bus2=BMT163097800.1.2.3,Phases=3,LineCode=tieSwitch,Length=0.001,Units=km,switch=T !numEQ 384130
new line.CTRR37049 bus1=BMT116784782.1.2.3,bus2=BMT116784775.1.2.3,Phases=3,LineCode=tieSwitch,Length=0.001,Units=km,switch=T !numEQ 150104
open line.CTRR37049 term=1
new line.CTR114143 bus1=BMT101708077.1.2.3,bus2=BMT168669346.1.2.3,Phases=3,LineCode=tieSwitch,Length=0.001,Units=km,switch=T !numEQ 90528
new line.CTR142801 bus1=BMT101708777.1.2.3,bus2=BMT101708840.1.2.3,Phases=3,LineCode=tieSwitch,Length=0.001,Units=km,switch=T !numEQ 149910
new line.CTR173510 bus1=BMT101712018.1.2.3,bus2=BMT163870160.1.2.3,Phases=3,LineCode=tieSwitch,Length=0.001,Units=km,switch=T !numEQ 10871
new line.CTR203316 bus1=BMT101708742.1.2.3,bus2=BMT154414091.1.2.3,Phases=3,LineCode=tieSwitch,Length=0.001,Units=km,switch=T !numEQ 90804
new line.CTR203981 bus1=BMT101328908.1.2.3,bus2=BMT101328929.1.2.3,Phases=3,LineCode=tieSwitch,Length=0.001,Units=km,switch=T !numEQ 149045
new line.CTR246541 bus1=BMT150941500.1.2.3,bus2=BMT155720469.1.2.3,Phases=3,LineCode=tieSwitch,Length=0.001,Units=km,switch=T !numEQ 374527
new line.CTR2710 bus1=BMT101708252.1,bus2=BMT101708259.1,Phases=1,LineCode=tieSwitch1,Length=0.001,Units=km,switch=T !numEQ 202174
new line.CTR49638 bus1=BMT101708175.1.2.3,bus2=BMT133321554.1.2.3,Phases=3,LineCode=tieSwitch,Length=0.001,Units=km,switch=T !numEQ 90621
new line.CTR498569 bus1=BMT101710002.1,bus2=BMT170603752.1,Phases=1,LineCode=tieSwitch1,Length=0.001,Units=km,switch=T !numEQ 8311
new line.CTR854563 bus1=BMT153499683.1.2.3,bus2=BMT153499605.1.2.3,Phases=3,LineCode=tieSwitch,Length=0.001,Units=km,switch=T !numEQ 304218
new line.CTR871812 bus1=BMT156267954.1.2.3,bus2=BMT163260598.1.2.3,Phases=3,LineCode=tieSwitch,Length=0.001,Units=km,switch=T !numEQ 374601
new line.CTR905966 bus1=BMT168669349.1.2.3,bus2=BMT168669351.1.2.3,Phases=3,LineCode=tieSwitch,Length=0.001,Units=km,switch=T !numEQ 90587
new line.CTR217281 bus1=BMT101708322.1.2.3,bus2=BMT113961017.1.2.3,Phases=3,LineCode=tieSwitch,Length=0.001,Units=km,switch=T !numEQ 7847
new line.CTR239968 bus1=BMT101708210.1.2.3,bus2=BMT153499680.1.2.3,Phases=3,LineCode=tieSwitch,Length=0.001,Units=km,switch=T !numEQ 90548
new line.CTR240052 bus1=BMT101711808.1.2.3,bus2=BMT167822976.1.2.3,Phases=3,LineCode=tieSwitch,Length=0.001,Units=km,switch=T !numEQ 90091
new line.CTR240066 bus1=BMT101712172.1.2.3,bus2=BMT158827958.1.2.3,Phases=3,LineCode=tieSwitch,Length=0.001,Units=km,switch=T !numEQ 90093
new line.CTR240080 bus1=BMT165866172.1.2.3,bus2=BMT101711829.1.2.3,Phases=3,LineCode=tieSwitch,Length=0.001,Units=km,switch=T !numEQ 90448
new line.CTR240164 bus1=BMT101708056.1.2.3,bus2=BMT166325170.1.2.3,Phases=3,LineCode=tieSwitch,Length=0.001,Units=km,switch=T !numEQ 90116
new line.CTR240185 bus1=BMT101712319.1.2.3,bus2=BMT173173628.1.2.3,Phases=3,LineCode=tieSwitch,Length=0.001,Units=km,switch=T !numEQ 312870
new line.CTR240213 bus1=BMT101708392.1.2.3,bus2=BMT160707567.1.2.3,Phases=3,LineCode=tieSwitch,Length=0.001,Units=km,switch=T !numEQ 91068
new line.CTR240241 bus1=BMT101709358.2,bus2=BMT101709624.2,Phases=1,LineCode=tieSwitch1,Length=0.001,Units=km,switch=T !numEQ 206437
new line.CTR320027 bus1=BMT150521476.1.2.3,bus2=BMT163598031.1.2.3,Phases=3,LineCode=tieSwitch,Length=0.001,Units=km,switch=T !numEQ 296368
new line.CTR322666 bus1=BMT101709449.2,bus2=BMT163145995.2,Phases=1,LineCode=tieSwitch1,Length=0.001,Units=km,switch=T !numEQ 148532
new line.CTR508789 bus1=BMT101709869.1.2.3,bus2=BMT101710051.1.2.3,Phases=3,LineCode=tieSwitch,Length=0.001,Units=km,switch=T !numEQ 196160
new line.CTR511939 bus1=BMT153181935.1.2.3,bus2=BMT101708532.1.2.3,Phases=3,LineCode=tieSwitch,Length=0.001,Units=km,switch=T !numEQ 150505
open line.CTR511939 term=1
new line.CTR57359 bus1=BMT101711885.1.2.3,bus2=BMT164011300.1.2.3,Phases=3,LineCode=tieSwitch,Length=0.001,Units=km,switch=T !numEQ 90590
new line.CTR57415 bus1=BMT101711899.1.2.3,bus2=BMT101711906.1.2.3,Phases=3,LineCode=tieSwitch,Length=0.001,Units=km,switch=T !numEQ 90095
open line.CTR57415 term=1
new line.CTR576311 bus1=BMT168669353.1.2.3,bus2=BMT101708161.1.2.3,Phases=3,LineCode=tieSwitch,Length=0.001,Units=km,switch=T !numEQ 14288
new line.CTR63603 bus1=BMT101709862.2,bus2=BMT101710065.2,Phases=1,LineCode=tieSwitch1,Length=0.001,Units=km,switch=T !numEQ 195218
new line.CTR689074 bus1=BMT101710310.1.2.3,bus2=BMT101710345.1.2.3,Phases=3,LineCode=tieSwitch,Length=0.001,Units=km,switch=T !numEQ 212490
new line.CTR762364 bus1=BMT101708721.1.2.3,bus2=BMT129634913.1.2.3,Phases=3,LineCode=tieSwitch,Length=0.001,Units=km,switch=T !numEQ 285484
new line.CTR769630 bus1=BMT101710618.1.2.3,bus2=BMT148386634.1.2.3,Phases=3,LineCode=tieSwitch,Length=0.001,Units=km,switch=T !numEQ 285466
new line.CTR891589 bus1=BMT163792031.1.2.3,bus2=BMT163792166.1.2.3,Phases=3,LineCode=tieSwitch,Length=0.001,Units=km,switch=T !numEQ 310763
