2024_89_CemigReconfigurationCases/1_AlimsCemig/MDH08/MDH08Transformadores.dss
new transformer.1059515 Phases=1,Windings=3,Buses=[BMT101710058.1 BBT10971067.1.0 BBT10971067.0.2],Conns=[wye wye wye],kvs=[7.967 0.12 0.12],kvas=[5.000000000 5.000000000 5.000000000],Taps=[1,1.000000000,1.000000000],XHL=1.628000000,XHT=1.628000000,XLT=1.085000000,%loadloss=1.900000000,%noloadloss=0.600000000
new transformer.1074201 Phases=1,Windings=3,Buses=[BMT166283857.1 BBT16479696.1.0 BBT16479696.0.2],Conns=[wye wye wye],kvs=[7.967 0.12 0.12],kvas=[35.000000000 35.000000000 35.000000000],Taps=[1,1.000000000,1.000000000],XHL=2.475000000,XHT=2.475000000,XLT=1.650000000,%loadloss=1.293000000,%noloadloss=0.342857000
new transformer.1154064 Phases=3,Windings=2,Buses=[BMT167821678.1.2.3 BBT33551079.1.2.3.0],Conns=[delta wye],kvs=[13.8 0.22],kvas=[75.000000000 75.000000000],Taps=[1,1.000000000],XHL=3.721000000,%loadloss=1.340000000,%noloadloss=0.340000000
new transformer.1307497 Phases=3,Windings=2,Buses=[BMT170295090.1.2.3 BBT85131195.1.2.3.0],Conns=[delta wye],kvs=[13.8 0.22],kvas=[75.000000000 75.000000000],Taps=[1,1.000000000],XHL=3.721000000,%loadloss=1.340000000,%noloadloss=0.340000000
new transformer.1357757 Phases=3,Windings=2,Buses=[BMT170120154.1.2.3 BBT121441420.1.2.3.0],Conns=[delta wye],kvs=[13.8 0.22],kvas=[45.000000000 45.000000000],Taps=[1,1.000000000],XHL=3.636000000,%loadloss=1.522000000,%noloadloss=0.377777000
new transformer.1400395 Phases=1,Windings=3,Buses=[BMT163598033.2 BBT150523478.1.0 BBT150523478.0.2],Conns=[wye wye wye],kvs=[7.967 0.12 0.12],kvas=[10.000000000 10.000000000 10.000000000],Taps=[1,1.000000000,1.000000000],XHL=1.877000000,XHT=1.877000000,XLT=1.252000000,%loadloss=1.800000000,%noloadloss=0.450000000
new transformer.1413298 Phases=3,Windings=2,Buses=[BMT166721621.1.2.3 BBT153490066.1.2.3.0],Conns=[delta wye],kvs=[13.8 0.22],kvas=[45.000000000 45.000000000],Taps=[1,1.000000000],XHL=3.636000000,%loadloss=1.522000000,%noloadloss=0.377777000
new transformer.1413353 Phases=1,Windings=3,Buses=[BMT153499682.1 BBT153499647.1.0 BBT153499647.0.2],Conns=[wye wye wye],kvs=[7.967 0.12 0.12],kvas=[10.000000000 10.000000000 10.000000000],Taps=[1,1.000000000,1.000000000],XHL=1.877000000,XHT=1.877000000,XLT=1.252000000,%loadloss=1.800000000,%noloadloss=0.450000000
new transformer.1440365 Phases=1,Windings=3,Buses=[BMT168669347.1 BBT159267312.1.0 BBT159267312.0.2],Conns=[wye wye wye],kvs=[7.967 0.12 0.12],kvas=[10.000000000 10.000000000 10.000000000],Taps=[1,1.000000000,1.000000000],XHL=1.877000000,XHT=1.877000000,XLT=1.252000000,%loadloss=1.800000000,%noloadloss=0.450000000
new transformer.1449452 Phases=1,Windings=3,Buses=[BMT165016137.2 BBT161512321.1.0 BBT161512321.0.2],Conns=[wye wye wye],kvs=[7.967 0.12 0.12],kvas=[35.000000000 35.000000000 35.000000000],Taps=[1,1.000000000,1.000000000],XHL=2.475000000,XHT=2.475000000,XLT=1.650000000,%loadloss=1.293000000,%noloadloss=0.342857000
new transformer.375327 Phases=3,Windings=2,Buses=[BMT153181933.1.2.3 BBT3285689.1.2.3.0],Conns=[delta wye],kvs=[13.8 0.22],kvas=[75.000000000 75.000000000],Taps=[1,1.000000000],XHL=3.721000000,%loadloss=1.340000000,%noloadloss=0.340000000
new transformer.385610 Phases=1,Windings=3,Buses=[BMT163146006.2 BBT3428160.1.0 BBT3428160.0.2],Conns=[wye wye wye],kvs=[7.967 0.12 0.12],kvas=[10.000000000 10.000000000 10.000000000],Taps=[1,1.000000000,1.000000000],XHL=1.877000000,XHT=1.877000000,XLT=1.252000000,%loadloss=1.800000000,%noloadloss=0.450000000
new transformer.399246 Phases=1,Windings=3,Buses=[BMT163145998.2 BBT3601508.1.0 BBT3601508.0.2],Conns=[wye wye wye],kvs=[7.967 0.12 0.12],kvas=[15.000000000 15.000000000 15.000000000],Taps=[1,1.000000000,1.000000000],XHL=2.123000000,XHT=2.123000000,XLT=1.415000000,%loadloss=1.600000000,%noloadloss=0.400000000
new transformer.416970 Phases=3,Windings=2,Buses=[BMT165798659.1.2.3 BBT4019660.1.2.3.0],Conns=[delta wye],kvs=[13.8 0.22],kvas=[45.000000000 45.000000000],Taps=[1,1.000000000],XHL=3.636000000,%loadloss=1.522000000,%noloadloss=0.377777000
new transformer.416977 Phases=3,Windings=2,Buses=[BMT101709078.1.2.3 BBT4020227.1.2.3.0],Conns=[delta wye],kvs=[13.8 0.22],kvas=[45.000000000 45.000000000],Taps=[1,1.000000000],XHL=3.636000000,%loadloss=1.522000000,%noloadloss=0.377777000
new transformer.416984 Phases=3,Windings=2,Buses=[BMT170995811.1.2.3 BBT4021200.1.2.3.0],Conns=[delta wye],kvs=[13.8 0.22],kvas=[30.000000000 30.000000000],Taps=[1,1.000000000],XHL=3.564000000,%loadloss=1.667000000,%noloadloss=0.433333000
new transformer.456030 Phases=1,Windings=3,Buses=[BMT101328915.2 BBT4687663.1.0 BBT4687663.0.2],Conns=[wye wye wye],kvs=[7.967 0.12 0.12],kvas=[5.000000000 5.000000000 5.000000000],Taps=[1,1.000000000,1.000000000],XHL=1.628000000,XHT=1.628000000,XLT=1.085000000,%loadloss=1.900000000,%noloadloss=0.600000000
new transformer.465081 Phases=3,Windings=2,Buses=[BMT165503012.1.2.3 BBT5242798.1.2.3.0],Conns=[delta wye],kvs=[13.8 0.22],kvas=[30.000000000 30.000000000],Taps=[1,1.000000000],XHL=3.564000000,%loadloss=1.667000000,%noloadloss=0.433333000
new transformer.465088 Phases=3,Windings=2,Buses=[BMT101709834.1.2.3 BBT5243253.1.2.3.0],Conns=[delta wye],kvs=[13.8 0.22],kvas=[30.000000000 30.000000000],Taps=[1,1.000000000],XHL=3.564000000,%loadloss=1.667000000,%noloadloss=0.433333000
new transformer.465109 Phases=3,Windings=2,Buses=[BMT101709841.1.2.3 BBT5244331.1.2.3.0],Conns=[delta wye],kvs=[13.8 0.22],kvas=[30.000000000 30.000000000],Taps=[1,1.000000000],XHL=3.564000000,%loadloss=1.667000000,%noloadloss=0.433333000
new transformer.465116 Phases=3,Windings=2,Buses=[BMT150773474.1.2.3 BBT5245108.1.2.3.0],Conns=[delta wye],kvs=[13.8 0.22],kvas=[30.000000000 30.000000000],Taps=[1,1.000000000],XHL=3.564000000,%loadloss=1.667000000,%noloadloss=0.433333000
new transformer.465123 Phases=3,Windings=2,Buses=[BMT150773475.1.2.3 BBT5246200.1.2.3.0],Conns=[delta wye],kvs=[13.8 0.22],kvas=[30.000000000 30.000000000],Taps=[1,1.000000000],XHL=3.564000000,%loadloss=1.667000000,%noloadloss=0.433333000
new transformer.66053 Phases=1,Windings=3,Buses=[BMT163145997.2 BBT679092.1.0 BBT679092.0.2],Conns=[wye wye wye],kvs=[7.967 0.12 0.12],kvas=[15.000000000 15.000000000 15.000000000],Taps=[1,1.000000000,1.000000000],XHL=2.123000000,XHT=2.123000000,XLT=1.415000000,%loadloss=1.600000000,%noloadloss=0.400000000
new transformer.66081 Phases=1,Windings=3,Buses=[BMT101709617.2 BBT679323.1.0 BBT679323.0.2],Conns=[wye wye wye],kvs=[7.967 0.12 0.12],kvas=[35.000000000 35.000000000 35.000000000],Taps=[1,1.000000000,1.000000000],XHL=2.475000000,XHT=2.475000000,XLT=1.650000000,%loadloss=1.293000000,%noloadloss=0.342857000
new transformer.1336554 Phases=3,Windings=2,Buses=[BMT166325177.1.2.3 BBT105556740.1.2.3.0],Conns=[delta wye],kvs=[13.8 0.22],kvas=[30.000000000 30.000000000],Taps=[1,1.000000000],XHL=3.564000000,%loadloss=1.667000000,%noloadloss=0.433333000
new transformer.1362097 Phases=3,Windings=2,Buses=[BMT130008489.1.2.3 BBT125296516.1.2.3.0],Conns=[delta wye],kvs=[13.8 0.22],kvas=[45.000000000 45.000000000],Taps=[1,1.000000000],XHL=3.636000000,%loadloss=1.522000000,%noloadloss=0.377777000
new transformer.1363525 Phases=3,Windings=2,Buses=[BMT170120152.1.2.3 BBT126514593.1.2.3.0],Conns=[delta wye],kvs=[13.8 0.22],kvas=[150.000000000 150.000000000],Taps=[1,1.000000000],XHL=3.805000000,%loadloss=1.127000000,%noloadloss=0.280000000
new transformer.1401762 Phases=3,Windings=2,Buses=[BMT160178501.1.2.3 BBT150905615.1.2.3.0],Conns=[delta wye],kvs=[13.8 0.22],kvas=[150.000000000 150.000000000],Taps=[1,1.000000000],XHL=3.805000000,%loadloss=1.127000000,%noloadloss=0.280000000
new transformer.1401891 Phases=1,Windings=3,Buses=[BMT153500241.1 BBT150936816.1.0 BBT150936816.0.2],Conns=[wye wye wye],kvs=[7.967 0.12 0.12],kvas=[10.000000000 10.000000000 10.000000000],Taps=[1,1.000000000,1.000000000],XHL=1.877000000,XHT=1.877000000,XLT=1.252000000,%loadloss=1.800000000,%noloadloss=0.450000000
new transformer.1438842 Phases=3,Windings=2,Buses=[BMT165868204.1.2.3 BBT158924517.1.2.3.0],Conns=[delta wye],kvs=[13.8 0.22],kvas=[75.000000000 75.000000000],Taps=[1,1.000000000],XHL=3.721000000,%loadloss=1.340000000,%noloadloss=0.340000000
new transformer.1438930 Phases=3,Windings=2,Buses=[BMT166283848.1.2.3 BBT158943895.1.2.3.0],Conns=[delta wye],kvs=[13.8 0.22],kvas=[45.000000000 45.000000000],Taps=[1,1.000000000],XHL=3.636000000,%loadloss=1.522000000,%noloadloss=0.377777000
new transformer.1439414 Phases=3,Windings=2,Buses=[BMT159046934.1.2.3 BBT159046941.1.2.3.0],Conns=[delta wye],kvs=[13.8 0.22],kvas=[75.000000000 75.000000000],Taps=[1,1.000000000],XHL=3.721000000,%loadloss=1.340000000,%noloadloss=0.340000000
new transformer.209280 Phases=1,Windings=3,Buses=[BMT113961045.2 BBT1656705.1.0 BBT1656705.0.2],Conns=[wye wye wye],kvs=[7.967 0.12 0.12],kvas=[15.000000000 15.000000000 15.000000000],Taps=[1,1.000000000,1.000000000],XHL=2.123000000,XHT=2.123000000,XLT=1.415000000,%loadloss=1.600000000,%noloadloss=0.400000000
new transformer.259155 Phases=3,Windings=2,Buses=[BMT165866166.1.2.3 BBT2034733.1.2.3.0],Conns=[delta wye],kvs=[13.8 0.22],kvas=[75.000000000 75.000000000],Taps=[1,1.000000000],XHL=3.721000000,%loadloss=1.340000000,%noloadloss=0.340000000
new transformer.259183 Phases=3,Windings=2,Buses=[BMT167822981.1.2.3 BBT2035048.1.2.3.0],Conns=[delta wye],kvs=[13.8 0.22],kvas=[150.000000000 150.000000000],Taps=[1,1.000000000],XHL=3.805000000,%loadloss=1.127000000,%noloadloss=0.280000000
new transformer.259232 Phases=3,Windings=2,Buses=[BMT158827961.1.2.3 BBT2035664.1.2.3.0],Conns=[delta wye],kvs=[13.8 0.22],kvas=[75.000000000 75.000000000],Taps=[1,1.000000000],XHL=3.721000000,%loadloss=1.340000000,%noloadloss=0.340000000
new transformer.259260 Phases=3,Windings=2,Buses=[BMT165866171.1.2.3 BBT2035930.1.2.3.0],Conns=[delta wye],kvs=[13.8 0.22],kvas=[75.000000000 75.000000000],Taps=[1,1.000000000],XHL=3.721000000,%loadloss=1.340000000,%noloadloss=0.340000000
new transformer.259288 Phases=3,Windings=2,Buses=[BMT158827964.1.2.3 BBT2036364.1.2.3.0],Conns=[delta wye],kvs=[13.8 0.22],kvas=[45.000000000 45.000000000],Taps=[1,1.000000000],XHL=3.636000000,%loadloss=1.522000000,%noloadloss=0.377777000
new transformer.362692 Phases=3,Windings=2,Buses=[BMT154287723.1.2.3 BBT2870659.1.2.3.0],Conns=[delta wye],kvs=[13.8 0.22],kvas=[45.000000000 45.000000000],Taps=[1,1.000000000],XHL=3.636000000,%loadloss=1.522000000,%noloadloss=0.377777000
new transformer.362741 Phases=3,Windings=2,Buses=[BMT160423424.1.2.3 BBT2871653.1.2.3.0],Conns=[delta wye],kvs=[13.8 0.22],kvas=[75.000000000 75.000000000],Taps=[1,1.000000000],XHL=3.721000000,%loadloss=1.340000000,%noloadloss=0.340000000
new transformer.362762 Phases=3,Windings=2,Buses=[BMT154990436.1.2.3 BBT2872017.1.2.3.0],Conns=[delta wye],kvs=[13.8 0.22],kvas=[45.000000000 45.000000000],Taps=[1,1.000000000],XHL=3.636000000,%loadloss=1.522000000,%noloadloss=0.377777000
new transformer.362783 Phases=3,Windings=2,Buses=[BMT154287727.1.2.3 BBT2872360.1.2.3.0],Conns=[delta wye],kvs=[13.8 0.22],kvas=[45.000000000 45.000000000],Taps=[1,1.000000000],XHL=3.636000000,%loadloss=1.522000000,%noloadloss=0.377777000
new transformer.362811 Phases=3,Windings=2,Buses=[BMT160178503.1.2.3 BBT2872780.1.2.3.0],Conns=[delta wye],kvs=[13.8 0.22],kvas=[75.000000000 75.000000000],Taps=[1,1.000000000],XHL=3.721000000,%loadloss=1.340000000,%noloadloss=0.340000000
new transformer.362818 Phases=3,Windings=2,Buses=[BMT160707572.1.2.3 BBT2872962.1.2.3.0],Conns=[delta wye],kvs=[13.8 0.22],kvas=[75.000000000 75.000000000],Taps=[1,1.000000000],XHL=3.721000000,%loadloss=1.340000000,%noloadloss=0.340000000
new transformer.362832 Phases=3,Windings=2,Buses=[BMT159046933.1.2.3 BBT2873305.1.2.3.0],Conns=[delta wye],kvs=[13.8 0.22],kvas=[45.000000000 45.000000000],Taps=[1,1.000000000],XHL=3.636000000,%loadloss=1.522000000,%noloadloss=0.377777000
new transformer.403908 Phases=1,Windings=3,Buses=[BMT165016136.2 BBT3655352.1.0 BBT3655352.0.2],Conns=[wye wye wye],kvs=[7.967 0.12 0.12],kvas=[35.000000000 35.000000000 35.000000000],Taps=[1,1.000000000,1.000000000],XHL=2.475000000,XHT=2.475000000,XLT=1.650000000,%loadloss=1.293000000,%noloadloss=0.342857000
new transformer.404377 Phases=3,Windings=2,Buses=[BMT129634920.1.2.3 BBT3661141.1.2.3.0],Conns=[delta wye],kvs=[13.8 0.22],kvas=[250.000000000 250.000000000],Taps=[1,1.000000000],XHL=4.881000000,%loadloss=0.990000000,%noloadloss=0.280000000
new transformer.404412 Phases=1,Windings=3,Buses=[BMT170603754.1 BBT3661547.1.0 BBT3661547.0.2],Conns=[wye wye wye],kvs=[7.967 0.12 0.12],kvas=[35.000000000 35.000000000 35.000000000],Taps=[1,1.000000000,1.000000000],XHL=2.475000000,XHT=2.475000000,XLT=1.650000000,%loadloss=1.293000000,%noloadloss=0.342857000
new transformer.424775 Phases=3,Windings=2,Buses=[BMT101708973.1.2.3 BBT4145051.1.2.3.0],Conns=[delta wye],kvs=[13.8 0.22],kvas=[45.000000000 45.000000000],Taps=[1,1.000000000],XHL=3.636000000,%loadloss=1.522000000,%noloadloss=0.377777000
new transformer.465424 Phases=3,Windings=2,Buses=[BMT155720483.1.2.3 BBT5284714.1.2.3.0],Conns=[delta wye],kvs=[13.8 0.22],kvas=[75.000000000 75.000000000],Taps=[1,1.000000000],XHL=3.721000000,%loadloss=1.340000000,%noloadloss=0.340000000
new transformer.66557 Phases=1,Windings=3,Buses=[BMT163146004.2 BBT683712.1.0 BBT683712.0.2],Conns=[wye wye wye],kvs=[7.967 0.12 0.12],kvas=[15.000000000 15.000000000 15.000000000],Taps=[1,1.000000000,1.000000000],XHL=2.123000000,XHT=2.123000000,XLT=1.415000000,%loadloss=1.600000000,%noloadloss=0.400000000
new transformer.66641 Phases=1,Windings=3,Buses=[BMT149948118.1 BBT684531.1.0 BBT684531.0.2],Conns=[wye wye wye],kvs=[7.967 0.12 0.12],kvas=[15.000000000 15.000000000 15.000000000],Taps=[1,1.000000000,1.000000000],XHL=2.123000000,XHT=2.123000000,XLT=1.415000000,%loadloss=1.600000000,%noloadloss=0.400000000
new transformer.1236909 Phases=3,Windings=2,Buses=[BMT165868205.1.2.3 BBT55128425.1.2.3.0],Conns=[delta wye],kvs=[13.8 0.22],kvas=[75.000000000 75.000000000],Taps=[1,1.000000000],XHL=3.721000000,%loadloss=1.340000000,%noloadloss=0.340000000
new transformer.1237469 Phases=3,Windings=2,Buses=[BMT166283851.1.2.3 BBT55480217.1.2.3.0],Conns=[delta wye],kvs=[13.8 0.22],kvas=[45.000000000 45.000000000],Taps=[1,1.000000000],XHL=3.636000000,%loadloss=1.522000000,%noloadloss=0.377777000
new transformer.1314637 Phases=3,Windings=2,Buses=[BMT129634934.1.2.3 BBT91041393.1.2.3.0],Conns=[delta wye],kvs=[13.8 0.22],kvas=[150.000000000 150.000000000],Taps=[1,1.000000000],XHL=3.805000000,%loadloss=1.127000000,%noloadloss=0.280000000
new transformer.1340726 Phases=3,Windings=2,Buses=[BMT154287730.1.2.3 BBT108576498.1.2.3.0],Conns=[delta wye],kvs=[13.8 0.22],kvas=[45.000000000 45.000000000],Taps=[1,1.000000000],XHL=3.636000000,%loadloss=1.522000000,%noloadloss=0.377777000
new transformer.1363672 Phases=3,Windings=2,Buses=[BMT159046938.1.2.3 BBT126632109.1.2.3.0],Conns=[delta wye],kvs=[13.8 0.22],kvas=[45.000000000 45.000000000],Taps=[1,1.000000000],XHL=3.636000000,%loadloss=1.522000000,%noloadloss=0.377777000
new transformer.1398453 Phases=1,Windings=3,Buses=[BMT149948116.1 BBT149948111.1.0 BBT149948111.0.2],Conns=[wye wye wye],kvs=[7.967 0.12 0.12],kvas=[15.000000000 15.000000000 15.000000000],Taps=[1,1.000000000,1.000000000],XHL=2.123000000,XHT=2.123000000,XLT=1.415000000,%loadloss=1.600000000,%noloadloss=0.400000000
new transformer.1443287 Phases=3,Windings=2,Buses=[BMT159833855.1.2.3 BBT159833841.1.2.3.0],Conns=[delta wye],kvs=[13.8 0.22],kvas=[150.000000000 150.000000000],Taps=[1,1.000000000],XHL=3.805000000,%loadloss=1.127000000,%noloadloss=0.280000000
new transformer.1490561 Phases=3,Windings=2,Buses=[BMT170054599.1.2.3 BBT170054124.1.2.3.0],Conns=[delta wye],kvs=[13.8 0.22],kvas=[45.000000000 45.000000000],Taps=[1,1.000000000],XHL=3.636000000,%loadloss=1.522000000,%noloadloss=0.377777000
new transformer.258679 Phases=3,Windings=2,Buses=[BMT101712277.1.2.3 BBT2029469.1.2.3.0],Conns=[delta wye],kvs=[13.8 0.22],kvas=[100.000000000 100.000000000],Taps=[1,1.000000000],XHL=3.771000000,%loadloss=1.218000000,%noloadloss=0.335000000
new transformer.258791 Phases=3,Windings=2,Buses=[BMT101711843.1.2.3 BBT2030904.1.2.3.0],Conns=[delta wye],kvs=[13.8 0.22],kvas=[75.000000000 75.000000000],Taps=[1,1.000000000],XHL=3.721000000,%loadloss=1.340000000,%noloadloss=0.340000000
new transformer.258819 Phases=3,Windings=2,Buses=[BMT164011301.1.2.3 BBT2031219.1.2.3.0],Conns=[delta wye],kvs=[13.8 0.22],kvas=[75.000000000 75.000000000],Taps=[1,1.000000000],XHL=3.721000000,%loadloss=1.340000000,%noloadloss=0.340000000
new transformer.258861 Phases=3,Windings=2,Buses=[BMT163870163.1.2.3 BBT2031632.1.2.3.0],Conns=[delta wye],kvs=[13.8 0.22],kvas=[30.000000000 30.000000000],Taps=[1,1.000000000],XHL=3.564000000,%loadloss=1.667000000,%noloadloss=0.433333000
new transformer.258889 Phases=3,Windings=2,Buses=[BMT166322568.1.2.3 BBT2031961.1.2.3.0],Conns=[delta wye],kvs=[13.8 0.22],kvas=[100.000000000 100.000000000],Taps=[1,1.000000000],XHL=3.771000000,%loadloss=1.218000000,%noloadloss=0.335000000
new transformer.258945 Phases=3,Windings=2,Buses=[BMT166322566.1.2.3 BBT2032507.1.2.3.0],Conns=[delta wye],kvs=[13.8 0.22],kvas=[75.000000000 75.000000000],Taps=[1,1.000000000],XHL=3.721000000,%loadloss=1.340000000,%noloadloss=0.340000000
new transformer.258973 Phases=3,Windings=2,Buses=[BMT164011303.1.2.3 BBT2032836.1.2.3.0],Conns=[delta wye],kvs=[13.8 0.22],kvas=[75.000000000 75.000000000],Taps=[1,1.000000000],XHL=3.721000000,%loadloss=1.340000000,%noloadloss=0.340000000
new transformer.259001 Phases=3,Windings=2,Buses=[BMT164011304.1.2.3 BBT2033172.1.2.3.0],Conns=[delta wye],kvs=[13.8 0.22],kvas=[75.000000000 75.000000000],Taps=[1,1.000000000],XHL=3.721000000,%loadloss=1.340000000,%noloadloss=0.340000000
new transformer.259022 Phases=3,Windings=2,Buses=[BMT164011308.1.2.3 BBT2033424.1.2.3.0],Conns=[delta wye],kvs=[13.8 0.22],kvas=[75.000000000 75.000000000],Taps=[1,1.000000000],XHL=3.721000000,%loadloss=1.340000000,%noloadloss=0.340000000
new transformer.259029 Phases=3,Windings=2,Buses=[BMT167181664.1.2.3 BBT2033550.1.2.3.0],Conns=[delta wye],kvs=[13.8 0.22],kvas=[30.000000000 30.000000000],Taps=[1,1.000000000],XHL=3.564000000,%loadloss=1.667000000,%noloadloss=0.433333000
new transformer.259057 Phases=3,Windings=2,Buses=[BMT167181665.1.2.3 BBT2033753.1.2.3.0],Conns=[delta wye],kvs=[13.8 0.22],kvas=[75.000000000 75.000000000],Taps=[1,1.000000000],XHL=3.721000000,%loadloss=1.340000000,%noloadloss=0.340000000
new transformer.259078 Phases=3,Windings=2,Buses=[BMT101712291.1.2.3 BBT2033935.1.2.3.0],Conns=[delta wye],kvs=[13.8 0.22],kvas=[45.000000000 45.000000000],Taps=[1,1.000000000],XHL=3.636000000,%loadloss=1.522000000,%noloadloss=0.377777000
new transformer.259106 Phases=3,Windings=2,Buses=[BMT165866170.1.2.3 BBT2034215.1.2.3.0],Conns=[delta wye],kvs=[13.8 0.22],kvas=[45.000000000 45.000000000],Taps=[1,1.000000000],XHL=3.636000000,%loadloss=1.522000000,%noloadloss=0.377777000
new transformer.259127 Phases=3,Windings=2,Buses=[BMT167822985.1.2.3 BBT2034404.1.2.3.0],Conns=[delta wye],kvs=[13.8 0.22],kvas=[150.000000000 150.000000000],Taps=[1,1.000000000],XHL=3.805000000,%loadloss=1.127000000,%noloadloss=0.280000000
new transformer.417019 Phases=3,Windings=2,Buses=[BMT170995812.1.2.3 BBT4023034.1.2.3.0],Conns=[delta wye],kvs=[13.8 0.22],kvas=[45.000000000 45.000000000],Taps=[1,1.000000000],XHL=3.636000000,%loadloss=1.522000000,%noloadloss=0.377777000
new transformer.451851 Phases=1,Windings=3,Buses=[BMT160426275.2 BBT4591077.1.0 BBT4591077.0.2],Conns=[wye wye wye],kvs=[7.967 0.12 0.12],kvas=[25.000000000 25.000000000 25.000000000],Taps=[1,1.000000000,1.000000000],XHL=2.344000000,XHT=2.344000000,XLT=1.563000000,%loadloss=1.420000000,%noloadloss=0.320000000
new transformer.457745 Phases=3,Windings=2,Buses=[BMT158841457.1.2.3 BBT4756193.1.2.3.0],Conns=[delta wye],kvs=[13.8 0.22],kvas=[75.000000000 75.000000000],Taps=[1,1.000000000],XHL=3.721000000,%loadloss=1.340000000,%noloadloss=0.340000000
new transformer.65976 Phases=1,Windings=3,Buses=[BMT163146005.2 BBT678371.1.0 BBT678371.0.2],Conns=[wye wye wye],kvs=[7.967 0.12 0.12],kvas=[10.000000000 10.000000000 10.000000000],Taps=[1,1.000000000,1.000000000],XHL=1.877000000,XHT=1.877000000,XLT=1.252000000,%loadloss=1.800000000,%noloadloss=0.450000000
new transformer.65983 Phases=1,Windings=3,Buses=[BMT160426274.2 BBT678434.1.0 BBT678434.0.2],Conns=[wye wye wye],kvs=[7.967 0.12 0.12],kvas=[35.000000000 35.000000000 35.000000000],Taps=[1,1.000000000,1.000000000],XHL=2.475000000,XHT=2.475000000,XLT=1.650000000,%loadloss=1.293000000,%noloadloss=0.342857000
new transformer.66900 Phases=3,Windings=2,Buses=[BMT162776285.1.2.3 BBT686484.1.2.3.0],Conns=[delta wye],kvs=[13.8 0.22],kvas=[75.000000000 75.000000000],Taps=[1,1.000000000],XHL=3.721000000,%loadloss=1.340000000,%noloadloss=0.340000000
new transformer.66907 Phases=1,Windings=3,Buses=[BMT101709638.2 BBT686575.1.0 BBT686575.0.2],Conns=[wye wye wye],kvs=[7.967 0.12 0.12],kvas=[5.000000000 5.000000000 5.000000000],Taps=[1,1.000000000,1.000000000],XHL=1.628000000,XHT=1.628000000,XLT=1.085000000,%loadloss=1.900000000,%noloadloss=0.600000000
new transformer.1063645 Phases=3,Windings=2,Buses=[BMT154990438.1.2.3 BBT12700123.1.2.3.0],Conns=[delta wye],kvs=[13.8 0.22],kvas=[45.000000000 45.000000000],Taps=[1,1.000000000],XHL=3.636000000,%loadloss=1.522000000,%noloadloss=0.377777000
new transformer.1063736 Phases=3,Windings=2,Buses=[BMT154990435.1.2.3 BBT12707200.1.2.3.0],Conns=[delta wye],kvs=[13.8 0.22],kvas=[30.000000000 30.000000000],Taps=[1,1.000000000],XHL=3.564000000,%loadloss=1.667000000,%noloadloss=0.433333000
new transformer.1303388 Phases=3,Windings=2,Buses=[BMT101710758.1.2.3 BBT81333254.1.2.3.0],Conns=[delta wye],kvs=[13.8 0.22],kvas=[30.000000000 30.000000000],Taps=[1,1.000000000],XHL=3.564000000,%loadloss=1.667000000,%noloadloss=0.433333000
new transformer.1303416 Phases=3,Windings=2,Buses=[BMT101710765.1.2.3 BBT81342123.1.2.3.0],Conns=[delta wye],kvs=[13.8 0.22],kvas=[30.000000000 30.000000000],Taps=[1,1.000000000],XHL=3.564000000,%loadloss=1.667000000,%noloadloss=0.433333000
new transformer.1378204 Phases=3,Windings=2,Buses=[BMT153181936.1.2.3 BBT136451226.1.2.3.0],Conns=[delta wye],kvs=[13.8 0.22],kvas=[100.000000000 100.000000000],Taps=[1,1.000000000],XHL=3.771000000,%loadloss=1.218000000,%noloadloss=0.335000000
new transformer.1401305 Phases=3,Windings=2,Buses=[BMT155720479.1.2.3 BBT150761892.1.2.3.0],Conns=[delta wye],kvs=[13.8 0.22],kvas=[45.000000000 45.000000000],Taps=[1,1.000000000],XHL=3.636000000,%loadloss=1.522000000,%noloadloss=0.377777000
new transformer.1401405 Phases=3,Windings=2,Buses=[BMT160647688.1.2.3 BBT150793047.1.2.3.0],Conns=[delta wye],kvs=[13.8 0.22],kvas=[75.000000000 75.000000000],Taps=[1,1.000000000],XHL=3.721000000,%loadloss=1.340000000,%noloadloss=0.340000000
new transformer.1436265 Phases=3,Windings=2,Buses=[BMT159182249.1.2.3 BBT158414706.1.2.3.0],Conns=[delta wye],kvs=[13.8 0.22],kvas=[45.000000000 45.000000000],Taps=[1,1.000000000],XHL=3.636000000,%loadloss=1.522000000,%noloadloss=0.377777000
new transformer.1446055 Phases=3,Windings=2,Buses=[BMT160707571.1.2.3 BBT160707573.1.2.3.0],Conns=[delta wye],kvs=[13.8 0.22],kvas=[45.000000000 45.000000000],Taps=[1,1.000000000],XHL=3.636000000,%loadloss=1.522000000,%noloadloss=0.377777000
new transformer.359913 Phases=3,Windings=2,Buses=[BMT101712305.1.2.3 BBT2825831.1.2.3.0],Conns=[delta wye],kvs=[13.8 0.22],kvas=[45.000000000 45.000000000],Taps=[1,1.000000000],XHL=3.636000000,%loadloss=1.522000000,%noloadloss=0.377777000
new transformer.369475 Phases=3,Windings=2,Buses=[BMT101709071.1.2.3 BBT3097774.1.2.3.0],Conns=[delta wye],kvs=[13.8 0.22],kvas=[75.000000000 75.000000000],Taps=[1,1.000000000],XHL=3.721000000,%loadloss=1.340000000,%noloadloss=0.340000000
new transformer.380451 Phases=3,Windings=2,Buses=[BMT163870164.1.2.3 BBT3382660.1.2.3.0],Conns=[delta wye],kvs=[13.8 0.22],kvas=[45.000000000 45.000000000],Taps=[1,1.000000000],XHL=3.636000000,%loadloss=1.522000000,%noloadloss=0.377777000
new transformer.383440 Phases=1,Windings=3,Buses=[BMT101708266.1 BBT3409134.1.0 BBT3409134.0.2],Conns=[wye wye wye],kvs=[7.967 0.12 0.12],kvas=[15.000000000 15.000000000 15.000000000],Taps=[1,1.000000000,1.000000000],XHL=2.123000000,XHT=2.123000000,XLT=1.415000000,%loadloss=1.600000000,%noloadloss=0.400000000
new transformer.383496 Phases=1,Windings=3,Buses=[BMT101709715.2 BBT3409281.1.0 BBT3409281.0.2],Conns=[wye wye wye],kvs=[7.967 0.12 0.12],kvas=[15.000000000 15.000000000 15.000000000],Taps=[1,1.000000000,1.000000000],XHL=2.123000000,XHT=2.123000000,XLT=1.415000000,%loadloss=1.600000000,%noloadloss=0.400000000
new transformer.383594 Phases=1,Windings=3,Buses=[BMT160426271.2 BBT3409701.1.0 BBT3409701.0.2],Conns=[wye wye wye],kvs=[7.967 0.12 0.12],kvas=[15.000000000 15.000000000 15.000000000],Taps=[1,1.000000000,1.000000000],XHL=2.123000000,XHT=2.123000000,XLT=1.415000000,%loadloss=1.600000000,%noloadloss=0.400000000
new transformer.394360 Phases=1,Windings=3,Buses=[BMT160426284.2 BBT3539838.1.0 BBT3539838.0.2],Conns=[wye wye wye],kvs=[7.967 0.12 0.12],kvas=[15.000000000 15.000000000 15.000000000],Taps=[1,1.000000000,1.000000000],XHL=2.123000000,XHT=2.123000000,XLT=1.415000000,%loadloss=1.600000000,%noloadloss=0.400000000
new transformer.394374 Phases=1,Windings=3,Buses=[BMT160426273.2 BBT3539866.1.0 BBT3539866.0.2],Conns=[wye wye wye],kvs=[7.967 0.12 0.12],kvas=[10.000000000 10.000000000 10.000000000],Taps=[1,1.000000000,1.000000000],XHL=1.877000000,XHT=1.877000000,XLT=1.252000000,%loadloss=1.800000000,%noloadloss=0.450000000
new transformer.405868 Phases=3,Windings=2,Buses=[BMT170846263.1.2.3 BBT3682869.1.2.3.0],Conns=[delta wye],kvs=[13.8 0.22],kvas=[45.000000000 45.000000000],Taps=[1,1.000000000],XHL=3.636000000,%loadloss=1.522000000,%noloadloss=0.377777000
new transformer.410019 Phases=1,Windings=3,Buses=[BMT170846253.2 BBT3748963.1.0 BBT3748963.0.2],Conns=[wye wye wye],kvs=[7.967 0.12 0.12],kvas=[10.000000000 10.000000000 10.000000000],Taps=[1,1.000000000,1.000000000],XHL=1.877000000,XHT=1.877000000,XLT=1.252000000,%loadloss=1.800000000,%noloadloss=0.450000000
new transformer.410054 Phases=3,Windings=2,Buses=[BMT170846256.1.2.3 BBT3749187.1.2.3.0],Conns=[delta wye],kvs=[13.8 0.22],kvas=[45.000000000 45.000000000],Taps=[1,1.000000000],XHL=3.636000000,%loadloss=1.522000000,%noloadloss=0.377777000
new transformer.414779 Phases=3,Windings=2,Buses=[BMT166283850.1.2.3 BBT3981048.1.2.3.0],Conns=[delta wye],kvs=[13.8 0.22],kvas=[45.000000000 45.000000000],Taps=[1,1.000000000],XHL=3.636000000,%loadloss=1.522000000,%noloadloss=0.377777000
new transformer.66347 Phases=1,Windings=3,Buses=[BMT160426269.2 BBT681997.1.0 BBT681997.0.2],Conns=[wye wye wye],kvs=[7.967 0.12 0.12],kvas=[25.000000000 25.000000000 25.000000000],Taps=[1,1.000000000,1.000000000],XHL=2.344000000,XHT=2.344000000,XLT=1.563000000,%loadloss=1.420000000,%noloadloss=0.320000000
new transformer.66354 Phases=1,Windings=3,Buses=[BMT101709603.2 BBT682011.1.0 BBT682011.0.2],Conns=[wye wye wye],kvs=[7.967 0.12 0.12],kvas=[15.000000000 15.000000000 15.000000000],Taps=[1,1.000000000,1.000000000],XHL=2.123000000,XHT=2.123000000,XLT=1.415000000,%loadloss=1.600000000,%noloadloss=0.400000000
new transformer.66375 Phases=1,Windings=3,Buses=[BMT160426283.2 BBT682270.1.0 BBT682270.0.2],Conns=[wye wye wye],kvs=[7.967 0.12 0.12],kvas=[35.000000000 35.000000000 35.000000000],Taps=[1,1.000000000,1.000000000],XHL=2.475000000,XHT=2.475000000,XLT=1.650000000,%loadloss=1.293000000,%noloadloss=0.342857000
new transformer.67124 Phases=1,Windings=3,Buses=[BMT164913022.2 BBT688542.1.0 BBT688542.0.2],Conns=[wye wye wye],kvs=[7.967 0.12 0.12],kvas=[15.000000000 15.000000000 15.000000000],Taps=[1,1.000000000,1.000000000],XHL=2.123000000,XHT=2.123000000,XLT=1.415000000,%loadloss=1.600000000,%noloadloss=0.400000000
new transformer.88908 Phases=3,Windings=2,Buses=[BMT129593543.1.2.3 BBT866916.1.2.3.0],Conns=[delta wye],kvs=[13.8 0.22],kvas=[75.000000000 75.000000000],Taps=[1,1.000000000],XHL=3.721000000,%loadloss=1.340000000,%noloadloss=0.340000000
new transformer.88964 Phases=3,Windings=2,Buses=[BMT160707569.1.2.3 BBT867231.1.2.3.0],Conns=[delta wye],kvs=[13.8 0.22],kvas=[75.000000000 75.000000000],Taps=[1,1.000000000],XHL=3.721000000,%loadloss=1.340000000,%noloadloss=0.340000000
new transformer.1072227 Phases=3,Windings=2,Buses=[BMT165866053.1.2.3 BBT15900565.1.2.3.0],Conns=[delta wye],kvs=[13.8 0.22],kvas=[30.000000000 30.000000000],Taps=[1,1.000000000],XHL=3.564000000,%loadloss=1.667000000,%noloadloss=0.433333000
new transformer.1103426 Phases=3,Windings=2,Buses=[BMT148353633.1.2.3 BBT24017611.1.2.3.0],Conns=[delta wye],kvs=[13.8 0.22],kvas=[45.000000000 45.000000000],Taps=[1,1.000000000],XHL=3.636000000,%loadloss=1.522000000,%noloadloss=0.377777000
new transformer.1119281 Phases=3,Windings=2,Buses=[BMT116784789.1.2.3 BBT27070388.1.2.3.0],Conns=[delta wye],kvs=[13.8 0.22],kvas=[30.000000000 30.000000000],Taps=[1,1.000000000],XHL=3.564000000,%loadloss=1.667000000,%noloadloss=0.433333000
new transformer.1272168 Phases=1,Windings=3,Buses=[BMT160426280.2 BBT71069245.1.0 BBT71069245.0.2],Conns=[wye wye wye],kvs=[7.967 0.12 0.12],kvas=[35.000000000 35.000000000 35.000000000],Taps=[1,1.000000000,1.000000000],XHL=2.475000000,XHT=2.475000000,XLT=1.650000000,%loadloss=1.293000000,%noloadloss=0.342857000
new transformer.1272434 Phases=3,Windings=2,Buses=[BMT129593550.1.2.3 BBT71178466.1.2.3.0],Conns=[delta wye],kvs=[13.8 0.22],kvas=[75.000000000 75.000000000],Taps=[1,1.000000000],XHL=3.721000000,%loadloss=1.340000000,%noloadloss=0.340000000
new transformer.1272490 Phases=3,Windings=2,Buses=[BMT129593571.1.2.3 BBT71186292.1.2.3.0],Conns=[delta wye],kvs=[13.8 0.22],kvas=[75.000000000 75.000000000],Taps=[1,1.000000000],XHL=3.721000000,%loadloss=1.340000000,%noloadloss=0.340000000
new transformer.1327902 Phases=3,Windings=2,Buses=[BMT154287728.1.2.3 BBT96915044.1.2.3.0],Conns=[delta wye],kvs=[13.8 0.22],kvas=[75.000000000 75.000000000],Taps=[1,1.000000000],XHL=3.721000000,%loadloss=1.340000000,%noloadloss=0.340000000
new transformer.1353235 Phases=3,Windings=2,Buses=[BMT165798760.1.2.3 BBT118015466.1.2.3.0],Conns=[delta wye],kvs=[13.8 0.22],kvas=[75.000000000 75.000000000],Taps=[1,1.000000000],XHL=3.721000000,%loadloss=1.340000000,%noloadloss=0.340000000
new transformer.1391313 Phases=3,Windings=2,Buses=[BMT154414094.1.2.3 BBT148362100.1.2.3.0],Conns=[delta wye],kvs=[13.8 0.22],kvas=[45.000000000 45.000000000],Taps=[1,1.000000000],XHL=3.636000000,%loadloss=1.522000000,%noloadloss=0.377777000
new transformer.1391315 Phases=3,Windings=2,Buses=[BMT159046936.1.2.3 BBT148362310.1.2.3.0],Conns=[delta wye],kvs=[13.8 0.22],kvas=[45.000000000 45.000000000],Taps=[1,1.000000000],XHL=3.636000000,%loadloss=1.522000000,%noloadloss=0.377777000
new transformer.1405609 Phases=3,Windings=2,Buses=[BMT163097801.1.2.3 BBT151765553.1.2.3.0],Conns=[delta wye],kvs=[13.8 0.22],kvas=[150.000000000 150.000000000],Taps=[1,1.000000000],XHL=3.805000000,%loadloss=1.127000000,%noloadloss=0.280000000
new transformer.1405611 Phases=3,Windings=2,Buses=[BMT163097802.1.2.3 BBT151765655.1.2.3.0],Conns=[delta wye],kvs=[13.8 0.22],kvas=[250.000000000 250.000000000],Taps=[1,1.000000000],XHL=4.881000000,%loadloss=0.990000000,%noloadloss=0.280000000
new transformer.1410816 Phases=3,Windings=2,Buses=[BMT162538517.1.2.3 BBT153025212.1.2.3.0],Conns=[delta wye],kvs=[13.8 0.22],kvas=[250.000000000 250.000000000],Taps=[1,1.000000000],XHL=4.881000000,%loadloss=0.990000000,%noloadloss=0.280000000
new transformer.1417026 Phases=3,Windings=2,Buses=[BMT154408212.1.2.3 BBT154405805.1.2.3.0],Conns=[delta wye],kvs=[13.8 0.22],kvas=[150.000000000 150.000000000],Taps=[1,1.000000000],XHL=3.805000000,%loadloss=1.127000000,%noloadloss=0.280000000
new transformer.1438453 Phases=3,Windings=2,Buses=[BMT158841456.1.2.3 BBT158841025.1.2.3.0],Conns=[delta wye],kvs=[13.8 0.22],kvas=[45.000000000 45.000000000],Taps=[1,1.000000000],XHL=3.636000000,%loadloss=1.522000000,%noloadloss=0.377777000
new transformer.1485917 Phases=3,Windings=2,Buses=[BMT170120153.1.2.3 BBT169185824.1.2.3.0],Conns=[delta wye],kvs=[13.8 0.22],kvas=[45.000000000 45.000000000],Taps=[1,1.000000000],XHL=3.636000000,%loadloss=1.522000000,%noloadloss=0.377777000
new transformer.258063 Phases=3,Windings=2,Buses=[BMT158827965.1.2.3 BBT2023351.1.2.3.0],Conns=[delta wye],kvs=[13.8 0.22],kvas=[45.000000000 45.000000000],Taps=[1,1.000000000],XHL=3.636000000,%loadloss=1.522000000,%noloadloss=0.377777000
new transformer.373367 Phases=3,Windings=2,Buses=[BMT162538516.1.2.3 BBT3221863.1.2.3.0],Conns=[delta wye],kvs=[13.8 0.22],kvas=[75.000000000 75.000000000],Taps=[1,1.000000000],XHL=3.721000000,%loadloss=1.340000000,%noloadloss=0.340000000
new transformer.403054 Phases=1,Windings=3,Buses=[BMT165016138.2 BBT3646112.1.0 BBT3646112.0.2],Conns=[wye wye wye],kvs=[7.967 0.12 0.12],kvas=[15.000000000 15.000000000 15.000000000],Taps=[1,1.000000000,1.000000000],XHL=2.123000000,XHT=2.123000000,XLT=1.415000000,%loadloss=1.600000000,%noloadloss=0.400000000
new transformer.419301 Phases=1,Windings=3,Buses=[BMT101709701.2 BBT4073056.1.0 BBT4073056.0.2],Conns=[wye wye wye],kvs=[7.967 0.12 0.12],kvas=[10.000000000 10.000000000 10.000000000],Taps=[1,1.000000000,1.000000000],XHL=1.877000000,XHT=1.877000000,XLT=1.252000000,%loadloss=1.800000000,%noloadloss=0.450000000
new transformer.422997 Phases=1,Windings=3,Buses=[BMT101710114.2 BBT4123743.1.0 BBT4123743.0.2],Conns=[wye wye wye],kvs=[7.967 0.12 0.12],kvas=[15.000000000 15.000000000 15.000000000],Taps=[1,1.000000000,1.000000000],XHL=2.123000000,XHT=2.123000000,XLT=1.415000000,%loadloss=1.600000000,%noloadloss=0.400000000
new transformer.438005 Phases=3,Windings=2,Buses=[BMT165561373.1.2.3 BBT4404443.1.2.3.0],Conns=[delta wye],kvs=[13.8 0.22],kvas=[45.000000000 45.000000000],Taps=[1,1.000000000],XHL=3.636000000,%loadloss=1.522000000,%noloadloss=0.377777000
new transformer.66263 Phases=3,Windings=2,Buses=[BMT170846250.1.2.3 BBT680842.1.2.3.0],Conns=[delta wye],kvs=[13.8 0.22],kvas=[30.000000000 30.000000000],Taps=[1,1.000000000],XHL=3.564000000,%loadloss=1.667000000,%noloadloss=0.433333000
new transformer.66312 Phases=3,Windings=2,Buses=[BMT170846254.1.2.3 BBT681451.1.2.3.0],Conns=[delta wye],kvs=[13.8 0.22],kvas=[15.000000000 15.000000000],Taps=[1,1.000000000],XHL=3.362000000,%loadloss=1.967000000,%noloadloss=0.500000000
new transformer.66963 Phases=1,Windings=3,Buses=[BMT101709673.2 BBT687079.1.0 BBT687079.0.2],Conns=[wye wye wye],kvs=[7.967 0.12 0.12],kvas=[15.000000000 15.000000000 15.000000000],Taps=[1,1.000000000,1.000000000],XHL=2.123000000,XHT=2.123000000,XLT=1.415000000,%loadloss=1.600000000,%noloadloss=0.400000000
new transformer.89293 Phases=3,Windings=2,Buses=[BMT170846248.1.2.3 BBT870612.1.2.3.0],Conns=[delta wye],kvs=[13.8 0.22],kvas=[30.000000000 30.000000000],Taps=[1,1.000000000],XHL=3.564000000,%loadloss=1.667000000,%noloadloss=0.433333000
new transformer.89370 Phases=1,Windings=3,Buses=[BMT170846246.2 BBT871592.1.0 BBT871592.0.2],Conns=[wye wye wye],kvs=[7.967 0.12 0.12],kvas=[15.000000000 15.000000000 15.000000000],Taps=[1,1.000000000,1.000000000],XHL=2.123000000,XHT=2.123000000,XLT=1.415000000,%loadloss=1.600000000,%noloadloss=0.400000000
new transformer.66690 Phases=1,Windings=3,Buses=[BMT160588652.1 BBT685021.1.0 BBT685021.0.2],Conns=[wye wye wye],kvs=[7.967 0.12 0.12],kvas=[35.000000000 35.000000000 35.000000000],Taps=[1,1.000000000,1.000000000],XHL=2.475000000,XHT=2.475000000,XLT=1.650000000,%loadloss=1.293000000,%noloadloss=0.342857000
new transformer.66718 Phases=1,Windings=3,Buses=[BMT160588654.1 BBT685280.1.0 BBT685280.0.2],Conns=[wye wye wye],kvs=[7.967 0.12 0.12],kvas=[25.000000000 25.000000000 25.000000000],Taps=[1,1.000000000,1.000000000],XHL=2.344000000,XHT=2.344000000,XLT=1.563000000,%loadloss=1.420000000,%noloadloss=0.320000000
new transformer.66725 Phases=1,Windings=3,Buses=[BMT105693821.1 BBT685308.1.0 BBT685308.0.2],Conns=[wye wye wye],kvs=[7.967 0.12 0.12],kvas=[15.000000000 15.000000000 15.000000000],Taps=[1,1.000000000,1.000000000],XHL=2.123000000,XHT=2.123000000,XLT=1.415000000,%loadloss=1.600000000,%noloadloss=0.400000000
new transformer.66774 Phases=1,Windings=3,Buses=[BMT164913023.2 BBT685539.1.0 BBT685539.0.2],Conns=[wye wye wye],kvs=[7.967 0.12 0.12],kvas=[10.000000000 10.000000000 10.000000000],Taps=[1,1.000000000,1.000000000],XHL=1.877000000,XHT=1.877000000,XLT=1.252000000,%loadloss=1.800000000,%noloadloss=0.450000000
new transformer.89069 Phases=3,Windings=2,Buses=[BMT170120150.1.2.3 BBT868281.1.2.3.0],Conns=[delta wye],kvs=[13.8 0.22],kvas=[75.000000000 75.000000000],Taps=[1,1.000000000],XHL=3.721000000,%loadloss=1.340000000,%noloadloss=0.340000000
new transformer.89076 Phases=3,Windings=2,Buses=[BMT160178500.1.2.3 BBT868400.1.2.3.0],Conns=[delta wye],kvs=[13.8 0.22],kvas=[75.000000000 75.000000000],Taps=[1,1.000000000],XHL=3.721000000,%loadloss=1.340000000,%noloadloss=0.340000000
new transformer.89090 Phases=3,Windings=2,Buses=[BMT148386640.1.2.3 BBT868477.1.2.3.0],Conns=[delta wye],kvs=[13.8 0.22],kvas=[30.000000000 30.000000000],Taps=[1,1.000000000],XHL=3.564000000,%loadloss=1.667000000,%noloadloss=0.433333000
new transformer.89104 Phases=3,Windings=2,Buses=[BMT160707570.1.2.3 BBT868575.1.2.3.0],Conns=[delta wye],kvs=[13.8 0.22],kvas=[75.000000000 75.000000000],Taps=[1,1.000000000],XHL=3.721000000,%loadloss=1.340000000,%noloadloss=0.340000000
new transformer.89111 Phases=3,Windings=2,Buses=[BMT166325183.1.2.3 BBT868666.1.2.3.0],Conns=[delta wye],kvs=[13.8 0.22],kvas=[75.000000000 75.000000000],Taps=[1,1.000000000],XHL=3.721000000,%loadloss=1.340000000,%noloadloss=0.340000000
new transformer.89125 Phases=3,Windings=2,Buses=[BMT173173639.1.2.3 BBT868764.1.2.3.0],Conns=[delta wye],kvs=[13.8 0.22],kvas=[45.000000000 45.000000000],Taps=[1,1.000000000],XHL=3.636000000,%loadloss=1.522000000,%noloadloss=0.377777000
new transformer.89132 Phases=3,Windings=2,Buses=[BMT163792208.1.2.3 BBT868855.1.2.3.0],Conns=[delta wye],kvs=[13.8 0.22],kvas=[45.000000000 45.000000000],Taps=[1,1.000000000],XHL=3.636000000,%loadloss=1.522000000,%noloadloss=0.377777000
new transformer.89139 Phases=3,Windings=2,Buses=[BMT155720476.1.2.3 BBT868925.1.2.3.0],Conns=[delta wye],kvs=[13.8 0.22],kvas=[45.000000000 45.000000000],Taps=[1,1.000000000],XHL=3.636000000,%loadloss=1.522000000,%noloadloss=0.377777000
new transformer.89146 Phases=3,Windings=2,Buses=[BMT155720482.1.2.3 BBT868988.1.2.3.0],Conns=[delta wye],kvs=[13.8 0.22],kvas=[150.000000000 150.000000000],Taps=[1,1.000000000],XHL=3.805000000,%loadloss=1.127000000,%noloadloss=0.280000000
new transformer.89153 Phases=1,Windings=3,Buses=[BMT166283855.1 BBT869058.1.0 BBT869058.0.2],Conns=[wye wye wye],kvs=[7.967 0.12 0.12],kvas=[35.000000000 35.000000000 35.000000000],Taps=[1,1.000000000,1.000000000],XHL=2.475000000,XHT=2.475000000,XLT=1.650000000,%loadloss=1.293000000,%noloadloss=0.342857000
new transformer.89167 Phases=3,Windings=2,Buses=[BMT166283844.1.2.3 BBT869114.1.2.3.0],Conns=[delta wye],kvs=[13.8 0.22],kvas=[75.000000000 75.000000000],Taps=[1,1.000000000],XHL=3.721000000,%loadloss=1.340000000,%noloadloss=0.340000000
new transformer.89174 Phases=3,Windings=2,Buses=[BMT173173632.1.2.3 BBT869184.1.2.3.0],Conns=[delta wye],kvs=[13.8 0.22],kvas=[30.000000000 30.000000000],Taps=[1,1.000000000],XHL=3.564000000,%loadloss=1.667000000,%noloadloss=0.433333000
...