2024_89_CemigReconfigurationCases/1_AlimsCemig/MDH08/MDH08SegmentosBT.dss
new line.10556302 bus1=BBT3097774.1.2.3.0,bus2=BBT3097781.1.2.3.0,Phases=3,Linecode=BT513_BT513_7_3_1,Length=0.000501000,Units=km
new line.10868593 bus1=BBT3221870.1.2.3.0,bus2=BBT866727.1.2.3.0,Phases=3,Linecode=BT803_BT803_4_3_4,Length=0.039457000,Units=km
new line.10868600 bus1=BBT3221863.1.2.3.0,bus2=BBT3221870.1.2.3.0,Phases=3,Linecode=BT513_BT513_7_3_1,Length=0.000501000,Units=km
new line.10868607 bus1=BBT3221870.1.2.3.0,bus2=BBT3221877.1.2.3.0,Phases=3,Linecode=BT803_BT803_4_3_4,Length=0.043058000,Units=km
new line.10868628 bus1=BBT3221877.1.2.3.0,bus2=BBT3221884.1.2.3.0,Phases=3,Linecode=BT803_BT803_4_3_4,Length=0.026427000,Units=km
new line.10996441 bus1=BBT3271493.1.2.3.0,bus2=BBT3271500.1.2.3.0,Phases=3,Linecode=BT514_BT514_7_3_1,Length=0.000501000,Units=km
new line.11371760 bus1=BBT3406033.1.2.3.0,bus2=BBT3406040.1.2.3.0,Phases=3,Linecode=BT810_BT810_4_3_4,Length=0.035857000,Units=km
new line.11384829 bus1=BBT3409134.1.2.0,bus2=BBT3409141.1.2.0,Phases=2,Linecode=BT517_BT517_7_2_1,Length=0.000501000,Units=km
new line.11385606 bus1=BBT3409281.1.2.0,bus2=BBT3409288.1.2.0,Phases=2,Linecode=BT518_BT518_7_2_1,Length=0.000501000,Units=km
new line.11385718 bus1=BBT4073056.1.2.0,bus2=BBT4073063.1.2.0,Phases=2,Linecode=BT518_BT518_7_2_1,Length=0.000501000,Units=km
new line.11385809 bus1=BBT3782605.1.2.0,bus2=BBT90513187.1.2.0,Phases=2,Linecode=BT801_BT801_4_2_3,Length=0.043875000,Units=km
new line.11385837 bus1=BBT3782612.1.2.0,bus2=BBT90513887.1.2.0,Phases=2,Linecode=BT801_BT801_4_2_3,Length=0.036410000,Units=km
new line.11385851 bus1=BBT3782626.1.2.0,bus2=BBT90514426.1.2.0,Phases=2,Linecode=BT801_BT801_4_2_3,Length=0.029975000,Units=km
new line.11504641 bus1=BBT3646175.1.2.0,bus2=BBT3646182.1.2.0,Phases=2,Linecode=BT809_BT809_4_2_4,Length=0.033250000,Units=km
new line.11504690 bus1=BBT3446220.1.2.0,bus2=BBT682018.1.2.0,Phases=2,Linecode=BT801_BT801_4_2_3,Length=0.037131000,Units=km
new line.11504697 bus1=BBT682011.1.2.0,bus2=BBT3446220.1.2.0,Phases=2,Linecode=BT517_BT517_7_2_1,Length=0.000501000,Units=km
new line.11504704 bus1=BBT3446220.1.2.0,bus2=BBT3446227.1.2.0,Phases=2,Linecode=BT801_BT801_4_2_3,Length=0.044023000,Units=km
new line.11504732 bus1=BBT3446227.1.2.0,bus2=BBT3763103.1.2.0,Phases=2,Linecode=BT801_BT801_4_2_3,Length=0.049043000,Units=km
new line.11710756 bus1=BBT3524872.1.2.3.0,bus2=BBT3524879.1.2.3.0,Phases=3,Linecode=BT803_BT803_4_3_4,Length=0.029077000,Units=km
new line.11710777 bus1=BBT3524879.1.2.3.0,bus2=BBT3524886.1.2.3.0,Phases=3,Linecode=BT803_BT803_4_3_4,Length=0.029690000,Units=km
new line.12076800 bus1=BBT3648898.1.2.3.0,bus2=BBT4224137.1.2.3.0,Phases=3,Linecode=BT810_BT810_4_3_4,Length=0.030895000,Units=km
new line.12076807 bus1=BBT3648898.1.2.3.0,bus2=BBT4224151.1.2.3.0,Phases=3,Linecode=BT810_BT810_4_3_4,Length=0.043058000,Units=km
new line.12077157 bus1=BBT3649241.1.2.3.0,bus2=BBT3649248.1.2.3.0,Phases=3,Linecode=BT301_BT501_5_3_1,Length=0.013004000,Units=km
new line.12077178 bus1=BBT3649227.1.2.3.0,bus2=BBT3649234.1.2.3.0,Phases=3,Linecode=BT301_BT501_5_3_1,Length=0.013042000,Units=km
new line.12077199 bus1=BBT3649234.1.2.3.0,bus2=BBT3649241.1.2.3.0,Phases=3,Linecode=BT301_BT501_5_3_1,Length=0.018033000,Units=km
new line.12084871 bus1=BBT3652265.1.2.0,bus2=BBT3652272.1.2.0,Phases=2,Linecode=BT508_BT508_7_2_1,Length=0.000501000,Units=km
new line.12092291 bus1=BBT5357661.1.2.0,bus2=BBT11225790.1.2.0,Phases=2,Linecode=BT808_BT808_4_2_3,Length=0.040035000,Units=km
new line.12093523 bus1=BBT3655394.1.2.0,bus2=BBT3655401.1.2.0,Phases=2,Linecode=BT807_BT807_4_2_3,Length=0.037172000,Units=km
new line.12093586 bus1=BBT3655359.1.2.0,bus2=BBT3655394.1.2.0,Phases=2,Linecode=BT807_BT807_4_2_3,Length=0.039061000,Units=km
new line.12093593 bus1=BBT3655352.1.2.0,bus2=BBT3655359.1.2.0,Phases=2,Linecode=BT513_BT513_7_2_1,Length=0.000501000,Units=km
new line.12093600 bus1=BBT3655359.1.2.0,bus2=BBT3655408.1.2.0,Phases=2,Linecode=BT808_BT808_4_2_3,Length=0.031153000,Units=km
new line.12093621 bus1=BBT3655408.1.2.0,bus2=BBT3655415.1.2.0,Phases=2,Linecode=BT807_BT807_4_2_3,Length=0.039329000,Units=km
new line.12093670 bus1=BBT3655415.1.2.0,bus2=BBT3655422.1.2.0,Phases=2,Linecode=BT807_BT807_4_2_3,Length=0.050491000,Units=km
new line.12093705 bus1=BBT3655422.1.2.0,bus2=BBT4579478.1.2.0,Phases=2,Linecode=BT808_BT808_4_2_3,Length=0.058615000,Units=km
new line.12094608 bus1=BBT3655541.1.2.3.0,bus2=BBT864410.1.2.3.0,Phases=3,Linecode=BT803_BT803_4_3_4,Length=0.018794000,Units=km
new line.12094636 bus1=BBT4184146.1.2.3.0,bus2=BBT4184153.1.2.3.0,Phases=3,Linecode=BT514_BT514_7_3_1,Length=0.000501000,Units=km
new line.12103918 bus1=BBT3661624.1.2.0,bus2=BBT3661631.1.2.0,Phases=2,Linecode=BT810_BT810_4_2_4,Length=0.039935000,Units=km
new line.12103939 bus1=BBT3661617.1.2.0,bus2=BBT3661624.1.2.0,Phases=2,Linecode=BT807_BT807_4_2_3,Length=0.039633000,Units=km
new line.12103967 bus1=BBT3661610.1.2.0,bus2=BBT3661617.1.2.0,Phases=2,Linecode=BT807_BT807_4_2_3,Length=0.039822000,Units=km
...